Original cmd-> /cluster/home/vlnitu/CA-Lab4-24-vlnitu/Pythia/bin/perceptron-no-multi-no-ship-1core --warmup_instructions=1000000 --simulation_instructions=10000000 --l2c_prefetcher_types=scooby --config=/cluster/home/vlnitu/CA-Lab4-24-vlnitu/Pythia/config/pythia.ini --mail-type=BEGIN,END  -traces /cluster/home/vlnitu/CA-Lab4-24-vlnitu/Pythia/traces/403.gcc-16B.champsimtrace.xz
*************************************************
   ChampSim Multicore Out-of-Order Simulator
   Last compiled: Nov 19 2024 20:10:11
*************************************************
parsing config file: /cluster/home/vlnitu/CA-Lab4-24-vlnitu/Pythia/config/pythia.ini
unable to parse section: , name: mail-type, value: BEGIN,END

trace_0 /cluster/home/vlnitu/CA-Lab4-24-vlnitu/Pythia/traces/403.gcc-16B.champsimtrace.xz
adding L2C_PREFETCHER: Scooby
Initialize SHIP state
warmup_instructions 1000000
simulation_instructions 10000000
champsim_seed 169
measure_ipc 0
measure_ipc_epoch 1000
measure_dram_bw 1
measure_dram_bw_epoch 256
measure_cache_acc 1
measure_cache_acc_epoch 1024
l1d_perfect 0
l2c_perfect 0
llc_perfect 0
l1d_semi_perfect 0
l2c_semi_perfect 0
llc_semi_perfect 0
semi_perfect_cache_page_buffer_size 64

num_cpus 1
cpu_freq 4000
dram_io_freq 2400
page_size 4096
block_size 64
max_read_per_cycle 8
max_fill_per_cycle 1
dram_channels 1
log2_dram_channels 0
dram_ranks 1
dram_banks 8
dram_rows 65536
dram_columns 128
dram_row_size 8
dram_size 4096
dram_pages 1048576

fetch_width 6
decode_width 6
exec_width 4
lq_width 2
sq_width 2
retire_width 4
scheduler_size 128
branch_mispredict_penalty 20
rob_size 256
lq_size 72
sq_size 56
num_instr_destinations_sparc 4
num_instr_destinations 2
num_instr_sources 4

itlb_set 16
itlb_way 8
itlb_rq_size 16
itlb_wq_size 16
itlb_pq_size 0
itlb_mshr_size 8
itlb_latency 1

dtlb_set 16
dtlb_way 4
dtlb_rq_size 16
dtlb_wq_size 16
dtlb_pq_size 0
dtlb_mshr_size 8
dtlb_latency 1

stlb_set 128
stlb_way 12
stlb_rq_size 32
stlb_wq_size 32
stlb_pq_size 0
stlb_mshr_size 16
stlb_latency 8

l1i_size 32
l1i_set 64
l1i_way 8
l1i_rq_size 64
l1i_wq_size 64
l1i_pq_size 8
l1i_mshr_size 8
l1i_latency 1

l1d_size 32
l1d_set 64
l1d_way 8
l1d_rq_size 64
l1d_wq_size 64
l1d_pq_size 8
l1d_mshr_size 16
l1d_latency 4

l2c_size 256
l2c_set 512
l2c_way 8
l2c_rq_size 32
l2c_wq_size 32
l2c_pq_size 32
l2c_mshr_size 32
l2c_latency 10

llc_size 2048
llc_set 2048
llc_way 16
llc_rq_size 32
llc_wq_size 32
llc_pq_size 32
llc_mshr_size 64
llc_latency 20

dram_channel_width 8
dram_wq_size 64
dram_rq_size 64
tRP 15
tRCD 15
tCAS 12.5
dram_dbus_turn_around_time 30
dram_write_high_wm 56
dram_write_low_wm 48
min_dram_writes_per_switch 16
dram_mtps 2400
dram_dbus_return_time 13

scooby_alpha 0.0065088
scooby_gamma 0.556301
scooby_epsilon 0.00182284
scooby_state_num_bits 10
scooby_max_states 1024
scooby_seed 200
scooby_policy EGreedy
scooby_learning_type SARSA
scooby_actions 1,3,4,5,10,11,12,22,23,30,32,-1,-3,-6,0,
scooby_max_actions 15
scooby_pt_size 256
scooby_st_size 64
scooby_max_pcs 5
scooby_max_offsets 5
scooby_max_deltas 5
scooby_reward_none -4
scooby_reward_incorrect -8
scooby_reward_correct_untimely 12
scooby_reward_correct_timely 20
scooby_brain_zero_init 0
scooby_enable_reward_all 0
scooby_enable_track_multiple 0
scooby_enable_reward_out_of_bounds 1
scooby_reward_out_of_bounds -12
scooby_state_type 1
scooby_state_hash_type 11
scooby_access_debug 0
scooby_print_access_debug 0
scooby_print_access_debug_pc deadbeef
scooby_print_access_debug_pc_count 0
scooby_print_trace 0
scooby_enable_state_action_stats 1
scooby_enable_reward_tracker_hit 0
scooby_reward_tracker_hit -2
scooby_enable_featurewise_engine 1
scooby_pref_degree 1
scooby_enable_dyn_degree 1
scooby_max_to_avg_q_thresholds 0.5,1,2,
scooby_dyn_degrees 1,2,4,4,
scooby_multi_deg_select_type 2
scooby_last_pref_offset_conf_thresholds 1,3,8,
scooby_dyn_degrees_type2 1,2,4,6,
scooby_action_tracker_size 2
scooby_high_bw_thresh 4
scooby_enable_hbw_reward 1
scooby_reward_hbw_correct_timely 20
scooby_reward_hbw_correct_untimely 12
scooby_reward_hbw_incorrect -14
scooby_reward_hbw_none -2
scooby_reward_hbw_out_of_bounds -12
scooby_reward_hbw_tracker_hit -2
scooby_last_pref_offset_conf_thresholds_hbw 1,3,8,
scooby_dyn_degrees_type2_hbw 1,2,4,6,

le_enable_trace 0
le_trace_interval 0
le_trace_file_name 
le_trace_state 0
le_enable_score_plot 0
le_plot_file_name 
le_plot_actions 
le_enable_action_trace 0
le_action_trace_interval 0
le_action_trace_name 
le_enable_action_plot 0

le_featurewise_active_features PC, PC_Delta
le_featurewise_num_tilings 3,3,
le_featurewise_num_tiles 128,128,
le_featurewise_hash_types 2,2,
le_featurewise_enable_tiling_offset 1,1,
le_featurewise_max_q_thresh 0.5
le_featurewise_enable_action_fallback 1
le_featurewise_feature_weights 1,1,
le_featurewise_enable_dynamic_weight 0
le_featurewise_weight_gradient 0.001
le_featurewise_disable_adjust_weight_all_features_align 1
le_featurewise_selective_update 0
le_featurewise_pooling_type 2
le_featurewise_enable_dyn_action_fallback 1
le_featurewise_bw_acc_check_level 1
le_featurewise_acc_thresh 2
le_featurewise_enable_trace 0
le_featurewise_trace_feature_type 0
le_featurewise_trace_feature 
le_featurewise_trace_interval 0
le_featurewise_trace_record_count 0
le_featurewise_trace_file_name 
le_featurewise_enable_score_plot 0
le_featurewise_plot_actions 
le_featurewise_plot_file_name 


Heartbeat CPU  0 instructions:    1000000 cycles:     452922 heartbeat IPC: 2.20789 cumulative IPC: 2.20789 (Simulation time: 0 hr 0 min 2 sec) 

Warmup complete CPU  0 instructions:    1000002 cycles:     452924 (Simulation time: 0 hr 0 min 2 sec) 

Heartbeat CPU  0 instructions:    2000000 cycles:    1189594 heartbeat IPC: 1.35746 cumulative IPC: 1.35746 (Simulation time: 0 hr 0 min 3 sec) 
Heartbeat CPU  0 instructions:    3000003 cycles:    1885730 heartbeat IPC: 1.43651 cumulative IPC: 1.39586 (Simulation time: 0 hr 0 min 4 sec) 
Heartbeat CPU  0 instructions:    4000000 cycles:    2685990 heartbeat IPC: 1.24959 cumulative IPC: 1.34344 (Simulation time: 0 hr 0 min 5 sec) 
Heartbeat CPU  0 instructions:    5000000 cycles:    3476489 heartbeat IPC: 1.26502 cumulative IPC: 1.32294 (Simulation time: 0 hr 0 min 7 sec) 
Heartbeat CPU  0 instructions:    6000000 cycles:    4329032 heartbeat IPC: 1.17296 cumulative IPC: 1.28995 (Simulation time: 0 hr 0 min 8 sec) 
Heartbeat CPU  0 instructions:    7000002 cycles:    5022597 heartbeat IPC: 1.44183 cumulative IPC: 1.31300 (Simulation time: 0 hr 0 min 9 sec) 
Heartbeat CPU  0 instructions:    8000000 cycles:    5723084 heartbeat IPC: 1.42758 cumulative IPC: 1.32823 (Simulation time: 0 hr 0 min 10 sec) 
Heartbeat CPU  0 instructions:    9000003 cycles:    6450600 heartbeat IPC: 1.37454 cumulative IPC: 1.33385 (Simulation time: 0 hr 0 min 12 sec) 
Heartbeat CPU  0 instructions:   10000001 cycles:    7142515 heartbeat IPC: 1.44526 cumulative IPC: 1.34537 (Simulation time: 0 hr 0 min 13 sec) 
Heartbeat CPU  0 instructions:   11000000 cycles:    7806496 heartbeat IPC: 1.50607 cumulative IPC: 1.35988 (Simulation time: 0 hr 0 min 14 sec) 
Finished CPU 0 instructions: 10000000 cycles: 7353573 cumulative IPC: 1.35988 (Simulation time: 0 hr 0 min 14 sec) 

ChampSim completed all CPUs

[ROI Statistics]
Core_0_instructions 10000000
Core_0_cycles 7353573
Core_0_IPC 1.35988

Core_0_branch_prediction_accuracy 99.74081
Core_0_branch_MPKI 0.50470
Core_0_average_ROB_occupancy_at_mispredict 74.10164

Core_0_L1D_total_access 668789
Core_0_L1D_total_hit 174825
Core_0_L1D_total_miss 493964
Core_0_L1D_loads 98222
Core_0_L1D_load_hit 91601
Core_0_L1D_load_miss 6621
Core_0_L1D_RFOs 570567
Core_0_L1D_RFO_hit 83224
Core_0_L1D_RFO_miss 487343
Core_0_L1D_prefetches 0
Core_0_L1D_prefetch_hit 0
Core_0_L1D_prefetch_miss 0
Core_0_L1D_writebacks 0
Core_0_L1D_writeback_hit 0
Core_0_L1D_writeback_miss 0
Core_0_L1D_prefetch_requested 0
Core_0_L1D_prefetch_dropped 0
Core_0_L1D_prefetch_issued 0
Core_0_L1D_prefetch_filled 0
Core_0_L1D_prefetch_useful 0
Core_0_L1D_prefetch_useless 0
Core_0_L1D_prefetch_late 0
Core_0_L1D_average_miss_latency 44.20923

Core_0_L1D_rq_access 132370
Core_0_L1D_rq_forward 0
Core_0_L1D_rq_merged 33421
Core_0_L1D_rq_to_cache 98949
Core_0_L1D_rq_full 0

Core_0_L1D_wq_access 3973884
Core_0_L1D_wq_forward 0
Core_0_L1D_wq_merged 1123
Core_0_L1D_wq_to_cache 3972761
Core_0_L1D_wq_full 0

Core_0_L1D_pq_access 0
Core_0_L1D_pq_forward 0
Core_0_L1D_pq_merged 0
Core_0_L1D_pq_to_cache 0
Core_0_L1D_pq_full 0

Core_0_L1D_acc_epochs 7605
Core_0_L1D_acc_level_0 7605
Core_0_L1D_acc_level_1 0
Core_0_L1D_acc_level_2 0
Core_0_L1D_acc_level_3 0
Core_0_L1D_acc_level_4 0
Core_0_L1D_acc_level_5 0
Core_0_L1D_acc_level_6 0
Core_0_L1D_acc_level_7 0
Core_0_L1D_acc_level_8 0
Core_0_L1D_acc_level_9 0

Core_0_L1I_total_access 2712603
Core_0_L1I_total_hit 2712042
Core_0_L1I_total_miss 561
Core_0_L1I_loads 2712603
Core_0_L1I_load_hit 2712042
Core_0_L1I_load_miss 561
Core_0_L1I_RFOs 0
Core_0_L1I_RFO_hit 0
Core_0_L1I_RFO_miss 0
Core_0_L1I_prefetches 0
Core_0_L1I_prefetch_hit 0
Core_0_L1I_prefetch_miss 0
Core_0_L1I_writebacks 0
Core_0_L1I_writeback_hit 0
Core_0_L1I_writeback_miss 0
Core_0_L1I_prefetch_requested 0
Core_0_L1I_prefetch_dropped 0
Core_0_L1I_prefetch_issued 0
Core_0_L1I_prefetch_filled 0
Core_0_L1I_prefetch_useful 0
Core_0_L1I_prefetch_useless 0
Core_0_L1I_prefetch_late 0
Core_0_L1I_average_miss_latency 50.37255

Core_0_L1I_rq_access 9999998
Core_0_L1I_rq_forward 0
Core_0_L1I_rq_merged 7286785
Core_0_L1I_rq_to_cache 2713213
Core_0_L1I_rq_full 0

Core_0_L1I_wq_access 0
Core_0_L1I_wq_forward 0
Core_0_L1I_wq_merged 0
Core_0_L1I_wq_to_cache 0
Core_0_L1I_wq_full 0

Core_0_L1I_pq_access 0
Core_0_L1I_pq_forward 0
Core_0_L1I_pq_merged 0
Core_0_L1I_pq_to_cache 0
Core_0_L1I_pq_full 0

Core_0_L1I_acc_epochs 7605
Core_0_L1I_acc_level_0 7605
Core_0_L1I_acc_level_1 0
Core_0_L1I_acc_level_2 0
Core_0_L1I_acc_level_3 0
Core_0_L1I_acc_level_4 0
Core_0_L1I_acc_level_5 0
Core_0_L1I_acc_level_6 0
Core_0_L1I_acc_level_7 0
Core_0_L1I_acc_level_8 0
Core_0_L1I_acc_level_9 0

Core_0_L2C_total_access 991922
Core_0_L2C_total_hit 494446
Core_0_L2C_total_miss 497476
Core_0_L2C_loads 7182
Core_0_L2C_load_hit 1512
Core_0_L2C_load_miss 5670
Core_0_L2C_RFOs 487343
Core_0_L2C_RFO_hit 318
Core_0_L2C_RFO_miss 487025
Core_0_L2C_prefetches 8326
Core_0_L2C_prefetch_hit 3545
Core_0_L2C_prefetch_miss 4781
Core_0_L2C_writebacks 489071
Core_0_L2C_writeback_hit 489071
Core_0_L2C_writeback_miss 0
Core_0_L2C_prefetch_requested 10612
Core_0_L2C_prefetch_dropped 0
Core_0_L2C_prefetch_issued 10612
Core_0_L2C_prefetch_filled 5549
Core_0_L2C_prefetch_useful 1513
Core_0_L2C_prefetch_useless 4036
Core_0_L2C_prefetch_late 45
Core_0_L2C_average_miss_latency 31.01503

Core_0_L2C_rq_access 494530
Core_0_L2C_rq_forward 0
Core_0_L2C_rq_merged 0
Core_0_L2C_rq_to_cache 494530
Core_0_L2C_rq_full 0

Core_0_L2C_wq_access 489072
Core_0_L2C_wq_forward 0
Core_0_L2C_wq_merged 0
Core_0_L2C_wq_to_cache 489072
Core_0_L2C_wq_full 0

Core_0_L2C_pq_access 10612
Core_0_L2C_pq_forward 0
Core_0_L2C_pq_merged 347
Core_0_L2C_pq_to_cache 10265
Core_0_L2C_pq_full 0

Core_0_L2C_acc_epochs 7605
Core_0_L2C_acc_level_0 6832
Core_0_L2C_acc_level_1 244
Core_0_L2C_acc_level_2 168
Core_0_L2C_acc_level_3 107
Core_0_L2C_acc_level_4 73
Core_0_L2C_acc_level_5 104
Core_0_L2C_acc_level_6 26
Core_0_L2C_acc_level_7 19
Core_0_L2C_acc_level_8 6
Core_0_L2C_acc_level_9 26

Core_0_LLC_total_access 986160
Core_0_LLC_total_hit 982805
Core_0_LLC_total_miss 3355
Core_0_LLC_loads 5628
Core_0_LLC_load_hit 4734
Core_0_LLC_load_miss 894
Core_0_LLC_RFOs 487026
Core_0_LLC_RFO_hit 486848
Core_0_LLC_RFO_miss 178
Core_0_LLC_prefetches 4823
Core_0_LLC_prefetch_hit 2540
Core_0_LLC_prefetch_miss 2283
Core_0_LLC_writebacks 488683
Core_0_LLC_writeback_hit 488683
Core_0_LLC_writeback_miss 0
Core_0_LLC_prefetch_requested 0
Core_0_LLC_prefetch_dropped 0
Core_0_LLC_prefetch_issued 0
Core_0_LLC_prefetch_filled 2911
Core_0_LLC_prefetch_useful 613
Core_0_LLC_prefetch_useless 0
Core_0_LLC_prefetch_late 0
Core_0_LLC_average_miss_latency 149.02414

Core_0_LLC_rq_access 492657
Core_0_LLC_rq_forward 0
Core_0_LLC_rq_merged 0
Core_0_LLC_rq_to_cache 492657
Core_0_LLC_rq_full 0

Core_0_LLC_wq_access 488685
Core_0_LLC_wq_forward 0
Core_0_LLC_wq_merged 0
Core_0_LLC_wq_to_cache 488685
Core_0_LLC_wq_full 0

Core_0_LLC_pq_access 5594
Core_0_LLC_pq_forward 0
Core_0_LLC_pq_merged 0
Core_0_LLC_pq_to_cache 5594
Core_0_LLC_pq_full 0

Core_0_LLC_acc_epochs 7624
Core_0_LLC_acc_level_0 7162
Core_0_LLC_acc_level_1 144
Core_0_LLC_acc_level_2 106
Core_0_LLC_acc_level_3 37
Core_0_LLC_acc_level_4 10
Core_0_LLC_acc_level_5 77
Core_0_LLC_acc_level_6 15
Core_0_LLC_acc_level_7 11
Core_0_LLC_acc_level_8 11
Core_0_LLC_acc_level_9 51

Core_0_major_page_fault 0
Core_0_minor_page_fault 475

scooby_st_lookup 8063
scooby_st_hit 6916
scooby_st_evict 1083
scooby_st_insert 1147
scooby_st_streaming 0

scooby_predict_called 8063
scooby_predict_out_of_bounds 322
scooby_predict_action_1 6418
scooby_predict_issue_action_1 3616
scooby_predict_hit_action_1 2802
scooby_predict_out_of_bounds_action_1 52
scooby_predict_action_3 282
scooby_predict_issue_action_3 162
scooby_predict_hit_action_3 120
scooby_predict_out_of_bounds_action_3 12
scooby_predict_action_4 435
scooby_predict_issue_action_4 331
scooby_predict_hit_action_4 104
scooby_predict_out_of_bounds_action_4 36
scooby_predict_action_5 77
scooby_predict_issue_action_5 58
scooby_predict_hit_action_5 19
scooby_predict_out_of_bounds_action_5 13
scooby_predict_action_10 105
scooby_predict_issue_action_10 80
scooby_predict_hit_action_10 25
scooby_predict_out_of_bounds_action_10 24
scooby_predict_action_11 89
scooby_predict_issue_action_11 60
scooby_predict_hit_action_11 29
scooby_predict_out_of_bounds_action_11 31
scooby_predict_action_12 78
scooby_predict_issue_action_12 60
scooby_predict_hit_action_12 18
scooby_predict_out_of_bounds_action_12 37
scooby_predict_action_22 87
scooby_predict_issue_action_22 48
scooby_predict_hit_action_22 39
scooby_predict_out_of_bounds_action_22 43
scooby_predict_action_23 63
scooby_predict_issue_action_23 31
scooby_predict_hit_action_23 32
scooby_predict_out_of_bounds_action_23 25
scooby_predict_action_30 36
scooby_predict_issue_action_30 13
scooby_predict_hit_action_30 23
scooby_predict_out_of_bounds_action_30 29
scooby_predict_action_32 26
scooby_predict_issue_action_32 9
scooby_predict_hit_action_32 17
scooby_predict_out_of_bounds_action_32 20
scooby_predict_action_-1 38
scooby_predict_issue_action_-1 11
scooby_predict_hit_action_-1 27
scooby_predict_out_of_bounds_action_-1 0
scooby_predict_action_-3 7
scooby_predict_issue_action_-3 5
scooby_predict_hit_action_-3 2
scooby_predict_out_of_bounds_action_-3 0
scooby_predict_action_-6 0
scooby_predict_issue_action_-6 0
scooby_predict_hit_action_-6 0
scooby_predict_out_of_bounds_action_-6 0
scooby_predict_action_0 0
scooby_predict_issue_action_0 0
scooby_predict_hit_action_0 0
scooby_predict_out_of_bounds_action_0 0
scooby_predict_multi_deg_called 1873
scooby_predict_predicted 10612
scooby_predict_multi_deg 6128
scooby_predict_multi_deg_2 1840
scooby_predict_multi_deg_3 1415
scooby_predict_multi_deg_4 1384
scooby_predict_multi_deg_5 753
scooby_predict_multi_deg_6 736
scooby_predict_multi_deg_7 0
scooby_predict_multi_deg_8 0
scooby_predict_multi_deg_9 0
scooby_predict_multi_deg_10 0
scooby_predict_multi_deg_11 0
scooby_predict_multi_deg_12 0
scooby_predict_multi_deg_13 0
scooby_predict_multi_deg_14 0
scooby_predict_multi_deg_15 0
scooby_predict_multi_deg_16 0

scooby_selected_deg_1 2611
scooby_selected_deg_2 412
scooby_selected_deg_3 0
scooby_selected_deg_4 655
scooby_selected_deg_5 0
scooby_selected_deg_6 806
scooby_selected_deg_7 0
scooby_selected_deg_8 0
scooby_selected_deg_9 0
scooby_selected_deg_10 0
scooby_selected_deg_11 0
scooby_selected_deg_12 0
scooby_selected_deg_13 0
scooby_selected_deg_14 0
scooby_selected_deg_15 0
scooby_selected_deg_16 0

scooby_state_6618a8|32|0 19,5,3,0,3,2,5,8,4,6,8,0,0,0,0,63,
scooby_state_6618e7|13|0 61,0,0,0,0,0,0,0,0,0,0,0,0,0,0,61,
scooby_state_66180b|54|0 16,4,2,2,2,4,8,4,8,8,0,0,0,0,0,58,
scooby_state_66188d|12|1 58,0,0,0,0,0,0,0,0,0,0,0,0,0,0,58,
scooby_state_62dc54|13|1 58,0,0,0,0,0,0,0,0,0,0,0,0,0,0,58,
scooby_state_6618bc|35|0 28,2,2,2,6,8,0,8,2,0,0,0,0,0,0,58,
scooby_state_6618dd|56|2 53,2,0,0,0,0,0,0,0,0,0,0,0,0,0,55,
scooby_state_65fcaf|26|3 53,0,0,0,0,0,0,0,0,0,0,0,0,0,0,53,
scooby_state_6453eb|25|-1 30,1,0,0,0,0,0,0,0,0,0,0,0,0,0,31,
scooby_state_6453eb|26|-1 30,1,0,0,0,0,0,0,0,0,0,0,0,0,0,31,
scooby_state_65f411|4|0 4,5,2,2,2,1,1,1,1,2,4,4,1,0,0,30,
scooby_state_49d03b|18|0 14,1,2,1,1,0,1,2,0,4,4,0,0,0,0,30,
scooby_state_47a8d5|15|2 9,3,3,2,1,2,2,4,4,0,0,0,0,0,0,30,
scooby_state_65fcaf|26|0 30,0,0,0,0,0,0,0,0,0,0,0,0,0,0,30,
scooby_state_65fed7|22|-2 30,0,0,0,0,0,0,0,0,0,0,0,0,0,0,30,
scooby_state_661b56|54|39 22,0,0,0,0,0,1,2,4,1,0,0,0,0,0,30,
scooby_state_6633e8|57|0 27,0,0,0,0,3,0,0,0,0,0,0,0,0,0,30,
scooby_state_665802|32|0 28,2,0,0,0,0,0,0,0,0,0,0,0,0,0,30,
scooby_state_6618cb|54|-3 30,0,0,0,0,0,0,0,0,0,0,0,0,0,0,30,
scooby_state_661b96|35|0 27,2,0,0,1,0,0,0,0,0,0,0,0,0,0,30,
scooby_state_65fd33|56|2 30,0,0,0,0,0,0,0,0,0,0,0,0,0,0,30,
scooby_state_47c369|5|-35 11,1,2,0,1,1,1,1,2,4,1,5,0,0,0,30,
scooby_state_62e86e|43|25 1,11,2,1,1,1,1,0,2,4,1,4,1,0,0,30,
scooby_state_49d037|24|0 10,0,3,1,1,1,1,3,4,4,2,0,0,0,0,30,
scooby_state_47ad4e|28|0 21,3,3,2,0,0,1,0,0,0,0,0,0,0,0,30,
scooby_state_65f8b4|37|0 30,0,0,0,0,0,0,0,0,0,0,0,0,0,0,30,
scooby_state_47a8c9|13|-1 30,0,0,0,0,0,0,0,0,0,0,0,0,0,0,30,
scooby_state_661b86|32|0 25,4,1,0,0,0,0,0,0,0,0,0,0,0,0,30,
scooby_state_49d030|18|0 8,1,1,1,1,1,2,4,2,4,5,0,0,0,0,30,
scooby_state_43de60|39|0 5,1,2,2,1,1,1,1,2,4,4,4,2,0,0,30,
scooby_state_6657d6|11|-2 29,0,0,0,0,0,0,0,0,0,0,0,0,0,0,29,
scooby_state_65db2f|55|-1 29,0,0,0,0,0,0,0,0,0,0,0,0,0,0,29,
scooby_state_45181a|15|2 29,0,0,0,0,0,0,0,0,0,0,0,0,0,0,29,
scooby_state_65fd4d|6|4 29,0,0,0,0,0,0,0,0,0,0,0,0,0,0,29,
scooby_state_62e760|15|-39 29,0,0,0,0,0,0,0,0,0,0,0,0,0,0,29,
scooby_state_65fe11|57|-3 27,2,0,0,0,0,0,0,0,0,0,0,0,0,0,29,
scooby_state_65fe64|4|0 29,0,0,0,0,0,0,0,0,0,0,0,0,0,0,29,
scooby_state_65feef|37|0 29,0,0,0,0,0,0,0,0,0,0,0,0,0,0,29,
scooby_state_661ba5|54|-6 29,0,0,0,0,0,0,0,0,0,0,0,0,0,0,29,
scooby_state_47a971|14|1 29,0,0,0,0,0,0,0,0,0,0,0,0,0,0,29,
scooby_state_6601fb|57|-1 28,1,0,0,0,0,0,0,0,0,0,0,0,0,0,29,
scooby_state_65fe11|60|5 24,2,2,1,0,0,0,0,0,0,0,0,0,0,0,29,
scooby_state_65fef5|3|0 22,2,1,1,2,1,0,0,0,0,0,0,0,0,0,29,
scooby_state_65fe72|24|-2 27,1,0,0,0,0,0,0,0,0,0,0,0,0,0,28,
scooby_state_660087|23|1 28,0,0,0,0,0,0,0,0,0,0,0,0,0,0,28,
scooby_state_6601f7|58|1 16,0,0,2,4,1,2,3,0,0,0,0,0,0,0,28,
scooby_state_65fcc3|55|-1 28,0,0,0,0,0,0,0,0,0,0,0,0,0,0,28,
scooby_state_47b5fb|26|-6 28,0,0,0,0,0,0,0,0,0,0,0,0,0,0,28,
scooby_state_65f5f3|24|-2 28,0,0,0,0,0,0,0,0,0,0,0,0,0,0,28,
scooby_state_65fed7|23|-2 28,0,0,0,0,0,0,0,0,0,0,0,0,0,0,28,
scooby_state_65f411|40|0 4,5,2,2,2,1,0,1,1,1,4,4,1,0,0,28,
scooby_state_451160|16|2 22,5,1,0,0,0,0,0,0,0,0,0,0,0,0,28,
scooby_state_451150|60|-1 28,0,0,0,0,0,0,0,0,0,0,0,0,0,0,28,
scooby_state_6657d6|11|-5 27,0,0,0,0,0,0,0,0,0,0,0,0,0,0,27,
scooby_state_65f690|4|0 27,0,0,0,0,0,0,0,0,0,0,0,0,0,0,27,
scooby_state_452217|14|-1 27,0,0,0,0,0,0,0,0,0,0,0,0,0,0,27,
scooby_state_65f844|25|3 27,0,0,0,0,0,0,0,0,0,0,0,0,0,0,27,
scooby_state_5ed13b|20|-2 27,0,0,0,0,0,0,0,0,0,0,0,0,0,0,27,
scooby_state_65f698|22|-2 27,0,0,0,0,0,0,0,0,0,0,0,0,0,0,27,
scooby_state_47b5fb|24|-2 23,3,1,0,0,0,0,0,0,0,0,0,0,0,0,27,
scooby_state_65f645|13|0 25,2,0,0,0,0,0,0,0,0,0,0,0,0,0,27,
scooby_state_65fd49|2|-5 26,0,0,0,0,0,0,0,0,0,0,0,0,0,0,26,
scooby_state_47afa6|11|-22 17,2,2,1,1,2,1,0,0,0,0,0,0,0,0,26,
scooby_state_58c170|8|-39 26,0,0,0,0,0,0,0,0,0,0,0,0,0,0,26,
scooby_state_58b800|32|1 24,0,0,0,0,0,0,0,0,1,0,0,0,0,0,25,
scooby_state_6618cb|54|-2 17,8,0,0,0,0,0,0,0,0,0,0,0,0,0,25,
scooby_state_6633e8|19|-3 8,0,17,0,0,0,0,0,0,0,0,0,0,0,0,25,
scooby_state_58ae92|4|0 7,2,1,0,2,1,1,2,0,1,3,4,1,0,0,25,
scooby_state_65fd33|57|2 24,0,0,0,0,0,0,0,0,0,0,0,0,0,0,24,
scooby_state_5ec389|0|0 3,1,5,2,1,1,1,3,4,3,0,0,0,0,0,24,
scooby_state_47c3c3|32|1 24,0,0,0,0,0,0,0,0,0,0,0,0,0,0,24,
scooby_state_65fd33|60|3 20,0,1,1,1,1,0,0,0,0,0,0,0,0,0,24,
scooby_state_47b50e|33|1 24,0,0,0,0,0,0,0,0,0,0,0,0,0,0,24,
scooby_state_47b50e|32|-3 23,0,0,0,0,0,0,0,0,0,0,0,0,0,0,23,
scooby_state_645800|32|1 3,2,1,1,1,2,3,2,4,4,0,0,0,0,0,23,
scooby_state_47c3c3|31|-3 23,0,0,0,0,0,0,0,0,0,0,0,0,0,0,23,
scooby_state_47c808|32|1 23,0,0,0,0,0,0,0,0,0,0,0,0,0,0,23,
scooby_state_65f835|32|0 12,4,0,0,0,4,1,1,0,0,0,0,0,0,0,22,
scooby_state_47addf|22|3 17,2,2,1,0,0,0,0,0,0,0,0,0,0,0,22,
scooby_state_62e866|18|-9 22,0,0,0,0,0,0,0,0,0,0,0,0,0,0,22,
scooby_state_44fae1|61|1 3,0,2,2,1,1,4,4,4,0,0,0,0,0,0,21,
scooby_state_58c153|47|9 15,0,4,1,0,0,0,0,0,0,0,0,0,0,0,20,
scooby_state_6453be|27|0 4,0,0,2,1,2,1,1,2,1,2,3,0,0,0,19,
scooby_state_62e5a1|27|0 3,1,10,1,1,2,0,0,0,0,0,0,0,0,0,18,
scooby_state_5ed13b|22|-1 17,1,0,0,0,0,0,0,0,0,0,0,0,0,0,18,
scooby_state_5ed13b|23|2 17,0,0,0,0,0,0,0,0,0,0,0,0,0,0,17,
scooby_state_65f411|7|-16 5,0,1,0,4,0,0,0,1,1,4,1,0,0,0,17,
scooby_state_47b589|46|0 14,0,2,1,0,0,0,0,0,0,0,0,0,0,0,17,
scooby_state_47ac0a|13|0 15,1,0,0,0,0,0,0,0,0,0,0,0,0,0,16,
scooby_state_47af9a|62|0 6,3,2,2,0,3,0,0,0,0,0,0,0,0,0,16,
scooby_state_5b628a|10|-1 15,0,1,0,0,0,0,0,0,0,0,0,0,0,0,16,
scooby_state_62e787|22|1 6,1,3,2,2,1,1,0,0,0,0,0,0,0,0,16,
scooby_state_47c80b|44|20 15,1,0,0,0,0,0,0,0,0,0,0,0,0,0,16,
scooby_state_47b50e|34|30 15,0,0,0,0,0,0,0,0,0,0,0,0,0,0,15,
scooby_state_62e5b3|21|15 15,0,0,0,0,0,0,0,0,0,0,0,0,0,0,15,
scooby_state_4517c1|31|0 15,0,0,0,0,0,0,0,0,0,0,0,0,0,0,15,
scooby_state_5eb75b|19|-20 12,1,1,0,0,0,0,0,0,0,0,0,0,0,0,14,
scooby_state_62e5b3|23|17 14,0,0,0,0,0,0,0,0,0,0,0,0,0,0,14,
scooby_state_47c331|35|-11 9,5,0,0,0,0,0,0,0,0,0,0,0,0,0,14,
scooby_state_47b5fb|25|-8 13,0,0,0,0,0,0,0,0,0,0,0,0,0,0,13,
scooby_state_5ed13b|21|1 13,0,0,0,0,0,0,0,0,0,0,0,0,0,0,13,
scooby_state_43d7c0|31|0 13,0,0,0,0,0,0,0,0,0,0,0,0,0,0,13,
scooby_state_5b6280|62|0 7,0,1,0,0,3,0,2,0,0,0,0,0,0,0,13,
scooby_state_47ac0a|13|-2 13,0,0,0,0,0,0,0,0,0,0,0,0,0,0,13,
scooby_state_6453be|27|2 7,0,0,0,0,3,0,0,0,0,0,2,0,0,0,12,
scooby_state_43de6d|53|0 1,3,2,2,2,1,1,0,0,0,0,0,0,0,0,12,
scooby_state_5ed080|39|20 12,0,0,0,0,0,0,0,0,0,0,0,0,0,0,12,
scooby_state_47b5fb|27|-8 12,0,0,0,0,0,0,0,0,0,0,0,0,0,0,12,
scooby_state_62e861|42|-1 11,1,0,0,0,0,0,0,0,0,0,0,0,0,0,12,
scooby_state_62e5b3|45|0 12,0,0,0,0,0,0,0,0,0,0,0,0,0,0,12,
scooby_state_47c3c3|34|9 12,0,0,0,0,0,0,0,0,0,0,0,0,0,0,12,
scooby_state_43de6d|60|0 12,0,0,0,0,0,0,0,0,0,0,0,0,0,0,12,
scooby_state_58b7c8|31|0 12,0,0,0,0,0,0,0,0,0,0,0,0,0,0,12,
scooby_state_65f411|7|-15 9,2,0,0,0,0,0,0,0,0,0,0,0,0,0,11,
scooby_state_47c369|62|0 3,0,1,1,1,1,1,1,1,1,0,0,0,0,0,11,
scooby_state_5eb75b|19|14 11,0,0,0,0,0,0,0,0,0,0,0,0,0,0,11,
scooby_state_451837|46|15 11,0,0,0,0,0,0,0,0,0,0,0,0,0,0,11,
scooby_state_661802|32|0 11,0,0,0,0,0,0,0,0,0,0,0,0,0,0,11,
scooby_state_62e5a1|27|-16 2,1,8,0,0,0,0,0,0,0,0,0,0,0,0,11,
scooby_state_43de6d|60|7 2,0,1,1,4,1,0,2,0,0,0,0,0,0,0,11,
scooby_state_43de6d|53|-7 0,0,0,0,0,1,2,4,2,2,0,0,0,0,0,11,
scooby_state_47c1f7|4|-42 4,0,6,0,0,0,0,0,0,0,0,0,0,0,0,10,
scooby_state_5ed13b|22|1 10,0,0,0,0,0,0,0,0,0,0,0,0,0,0,10,
scooby_state_6457d0|31|-1 10,0,0,0,0,0,0,0,0,0,0,0,0,0,0,10,
scooby_state_6457d0|31|0 10,0,0,0,0,0,0,0,0,0,0,0,0,0,0,10,
scooby_state_47c7c2|31|0 10,0,0,0,0,0,0,0,0,0,0,0,0,0,0,10,
scooby_state_58b7c8|31|-1 9,0,0,0,0,0,0,0,0,0,0,0,0,0,0,9,
scooby_state_47c32a|40|21 7,2,0,0,0,0,0,0,0,0,0,0,0,0,0,9,
scooby_state_47c7c6|50|0 8,1,0,0,0,0,0,0,0,0,0,0,0,0,0,9,
scooby_state_5ed078|38|7 9,0,0,0,0,0,0,0,0,0,0,0,0,0,0,9,
scooby_state_62e802|32|0 7,0,0,0,0,1,0,0,1,0,0,0,0,0,0,9,
scooby_state_47c32a|40|36 3,1,0,0,0,0,1,1,1,2,0,0,0,0,0,9,
scooby_state_47c80b|46|2 1,8,0,0,0,0,0,0,0,0,0,0,0,0,0,9,
scooby_state_5ed13b|21|-3 9,0,0,0,0,0,0,0,0,0,0,0,0,0,0,9,
scooby_state_5ed13b|23|3 9,0,0,0,0,0,0,0,0,0,0,0,0,0,0,9,
scooby_state_5ed078|31|23 9,0,0,0,0,0,0,0,0,0,0,0,0,0,0,9,
scooby_state_5ed13b|24|-1 9,0,0,0,0,0,0,0,0,0,0,0,0,0,0,9,
scooby_state_5ed078|30|22 9,0,0,0,0,0,0,0,0,0,0,0,0,0,0,9,
scooby_state_5ed0bd|4|-35 9,0,0,0,0,0,0,0,0,0,0,0,0,0,0,9,
scooby_state_44fae1|61|0 8,0,0,1,0,0,0,0,0,0,0,0,0,0,0,9,
scooby_state_47c306|16|0 8,1,0,0,0,0,0,0,0,0,0,0,0,0,0,9,
scooby_state_47c3c3|36|12 8,0,0,0,0,0,0,0,0,0,0,0,0,0,0,8,
scooby_state_4ec800|32|1 8,0,0,0,0,0,0,0,0,0,0,0,0,0,0,8,
scooby_state_5ed065|18|-1 8,0,0,0,0,0,0,0,0,0,0,0,0,0,0,8,
scooby_state_451837|46|12 8,0,0,0,0,0,0,0,0,0,0,0,0,0,0,8,
scooby_state_47b5fb|28|-8 8,0,0,0,0,0,0,0,0,0,0,0,0,0,0,8,
scooby_state_47c3c3|35|7 8,0,0,0,0,0,0,0,0,0,0,0,0,0,0,8,
scooby_state_47c331|35|25 0,8,0,0,0,0,0,0,0,0,0,0,0,0,0,8,
scooby_state_5ed065|62|-1 8,0,0,0,0,0,0,0,0,0,0,0,0,0,0,8,
scooby_state_62e7fa|18|-9 8,0,0,0,0,0,0,0,0,0,0,0,0,0,0,8,
scooby_state_58a170|46|0 8,0,0,0,0,0,0,0,0,0,0,0,0,0,0,8,
scooby_state_5b628a|10|-24 4,0,4,0,0,0,0,0,0,0,0,0,0,0,0,8,
scooby_state_4ec7c0|31|0 8,0,0,0,0,0,0,0,0,0,0,0,0,0,0,8,
scooby_state_456460|17|0 8,0,0,0,0,0,0,0,0,0,0,0,0,0,0,8,
scooby_state_47c7c2|31|-1 7,0,0,0,0,0,0,0,0,0,0,0,0,0,0,7,
scooby_state_5ed078|38|28 7,0,0,0,0,0,0,0,0,0,0,0,0,0,0,7,
scooby_state_5ed13b|25|5 7,0,0,0,0,0,0,0,0,0,0,0,0,0,0,7,
scooby_state_5ed065|21|-1 7,0,0,0,0,0,0,0,0,0,0,0,0,0,0,7,
scooby_state_5ed065|39|-1 7,0,0,0,0,0,0,0,0,0,0,0,0,0,0,7,
scooby_state_43d803|32|1 3,0,3,0,1,0,0,0,0,0,0,0,0,0,0,7,
scooby_state_45681d|32|15 7,0,0,0,0,0,0,0,0,0,0,0,0,0,0,7,
scooby_state_62e5b3|43|0 7,0,0,0,0,0,0,0,0,0,0,0,0,0,0,7,
scooby_state_5ed078|31|1 7,0,0,0,0,0,0,0,0,0,0,0,0,0,0,7,
scooby_state_47c7a5|39|34 1,1,0,0,0,0,1,3,0,0,0,1,0,0,0,7,
scooby_state_5ed065|34|-1 7,0,0,0,0,0,0,0,0,0,0,0,0,0,0,7,
scooby_state_47c331|41|5 4,2,0,0,0,0,0,0,0,0,0,0,0,0,0,6,
scooby_state_47c306|21|0 6,0,0,0,0,0,0,0,0,0,0,0,0,0,0,6,
scooby_state_47bc8d|0|0 4,0,0,1,0,0,0,1,0,0,0,0,0,0,0,6,
scooby_state_661802|32|1 4,0,0,0,1,1,0,0,0,0,0,0,0,0,0,6,
scooby_state_5ed065|8|-1 6,0,0,0,0,0,0,0,0,0,0,0,0,0,0,6,
scooby_state_5ec440|17|0 1,1,1,1,1,1,0,0,0,0,0,0,0,0,0,6,
scooby_state_47c306|16|-2 6,0,0,0,0,0,0,0,0,0,0,0,0,0,0,6,
scooby_state_47c381|14|0 6,0,0,0,0,0,0,0,0,0,0,0,0,0,0,6,
scooby_state_5ed0bd|49|5 5,0,1,0,0,0,0,0,0,0,0,0,0,0,0,6,
scooby_state_5ed065|15|1 6,0,0,0,0,0,0,0,0,0,0,0,0,0,0,6,
scooby_state_451837|46|38 6,0,0,0,0,0,0,0,0,0,0,0,0,0,0,6,
scooby_state_5ed080|39|34 6,0,0,0,0,0,0,0,0,0,0,0,0,0,0,6,
scooby_state_4517fb|57|2 1,1,4,0,0,0,0,0,0,0,0,0,0,0,0,6,
scooby_state_5ed065|38|-1 6,0,0,0,0,0,0,0,0,0,0,0,0,0,0,6,
scooby_state_5ed065|12|-1 6,0,0,0,0,0,0,0,0,0,0,0,0,0,0,6,
scooby_state_5ed065|17|-1 6,0,0,0,0,0,0,0,0,0,0,0,0,0,0,6,
scooby_state_6617e0|31|0 6,0,0,0,0,0,0,0,0,0,0,0,0,0,0,6,
scooby_state_451894|57|2 3,0,0,0,1,1,0,1,0,0,0,0,0,0,0,6,
scooby_state_5ed13b|21|-2 6,0,0,0,0,0,0,0,0,0,0,0,0,0,0,6,
scooby_state_43d803|32|0 1,1,1,0,0,3,0,0,0,0,0,0,0,0,0,6,
scooby_state_47c3c3|33|-16 6,0,0,0,0,0,0,0,0,0,0,0,0,0,0,6,
scooby_state_5ed065|24|-1 6,0,0,0,0,0,0,0,0,0,0,0,0,0,0,6,
scooby_state_5ed065|15|-1 6,0,0,0,0,0,0,0,0,0,0,0,0,0,0,6,
scooby_state_5ed065|16|-1 6,0,0,0,0,0,0,0,0,0,0,0,0,0,0,6,
scooby_state_660441|17|0 5,1,0,0,0,0,0,0,0,0,0,0,0,0,0,6,
scooby_state_6633e8|19|-11 5,0,0,0,0,0,0,0,0,0,0,0,0,0,0,5,
scooby_state_58c219|47|9 5,0,0,0,0,0,0,0,0,0,0,0,0,0,0,5,
scooby_state_5ed065|27|-1 5,0,0,0,0,0,0,0,0,0,0,0,0,0,0,5,
scooby_state_47c1f7|4|-37 1,1,3,0,0,0,0,0,0,0,0,0,0,0,0,5,
scooby_state_5ed065|22|-1 5,0,0,0,0,0,0,0,0,0,0,0,0,0,0,5,
scooby_state_47b7a7|15|0 5,0,0,0,0,0,0,0,0,0,0,0,0,0,0,5,
scooby_state_451894|63|4 2,1,1,0,0,0,1,0,0,0,0,0,0,0,0,5,
scooby_state_62e861|53|-1 5,0,0,0,0,0,0,0,0,0,0,0,0,0,0,5,
scooby_state_65fd33|57|1 5,0,0,0,0,0,0,0,0,0,0,0,0,0,0,5,
scooby_state_5ed065|16|0 5,0,0,0,0,0,0,0,0,0,0,0,0,0,0,5,
scooby_state_5ed065|37|-1 5,0,0,0,0,0,0,0,0,0,0,0,0,0,0,5,
scooby_state_47c306|22|-2 5,0,0,0,0,0,0,0,0,0,0,0,0,0,0,5,
scooby_state_62e5b3|43|1 5,0,0,0,0,0,0,0,0,0,0,0,0,0,0,5,
scooby_state_65fd33|60|5 5,0,0,0,0,0,0,0,0,0,0,0,0,0,0,5,
scooby_state_450f3f|4|0 5,0,0,0,0,0,0,0,0,0,0,0,0,0,0,5,
scooby_state_645800|32|0 5,0,0,0,0,0,0,0,0,0,0,0,0,0,0,5,
scooby_state_47addf|22|0 4,1,0,0,0,0,0,0,0,0,0,0,0,0,0,5,
scooby_state_5ed065|19|-1 5,0,0,0,0,0,0,0,0,0,0,0,0,0,0,5,
scooby_state_49d4b4|36|1 3,0,2,0,0,0,0,0,0,0,0,0,0,0,0,5,
scooby_state_451894|59|2 3,0,0,0,0,1,0,1,0,0,0,0,0,0,0,5,
scooby_state_47c331|35|31 5,0,0,0,0,0,0,0,0,0,0,0,0,0,0,5,
scooby_state_5ed065|0|-1 5,0,0,0,0,0,0,0,0,0,0,0,0,0,0,5,
scooby_state_4517fb|0|0 2,0,3,0,0,0,0,0,0,0,0,0,0,0,0,5,
scooby_state_5ed078|31|24 5,0,0,0,0,0,0,0,0,0,0,0,0,0,0,5,
scooby_state_58b800|32|0 5,0,0,0,0,0,0,0,0,0,0,0,0,0,0,5,
scooby_state_4517fb|59|2 1,1,3,0,0,0,0,0,0,0,0,0,0,0,0,5,
scooby_state_47b80e|30|8 3,0,1,1,0,0,0,0,0,0,0,0,0,0,0,5,
scooby_state_5ed078|37|6 5,0,0,0,0,0,0,0,0,0,0,0,0,0,0,5,
scooby_state_58c153|47|8 5,0,0,0,0,0,0,0,0,0,0,0,0,0,0,5,
scooby_state_5ed065|14|-1 5,0,0,0,0,0,0,0,0,0,0,0,0,0,0,5,
scooby_state_451894|55|4 2,1,0,0,1,0,1,0,0,0,0,0,0,0,0,5,
scooby_state_4517fb|63|4 1,1,3,0,0,0,0,0,0,0,0,0,0,0,0,5,
scooby_state_47c306|3|0 5,0,0,0,0,0,0,0,0,0,0,0,0,0,0,5,
scooby_state_4517fb|3|0 3,0,2,0,0,0,0,0,0,0,0,0,0,0,0,5,
scooby_state_44fa04|27|0 4,1,0,0,0,0,0,0,0,0,0,0,0,0,0,5,
scooby_state_47c3c3|34|-12 5,0,0,0,0,0,0,0,0,0,0,0,0,0,0,5,
scooby_state_4517fb|55|4 1,1,3,0,0,0,0,0,0,0,0,0,0,0,0,5,
scooby_state_5ed0bd|62|0 4,0,1,0,0,0,0,0,0,0,0,0,0,0,0,5,
scooby_state_47c306|24|8 4,0,0,0,0,0,0,0,0,0,0,0,0,0,0,4,
scooby_state_451834|36|1 1,1,2,0,0,0,0,0,0,0,0,0,0,0,0,4,
scooby_state_58ae92|5|0 0,0,0,0,0,0,0,0,4,0,0,0,0,0,0,4,
scooby_state_58c170|7|-40 4,0,0,0,0,0,0,0,0,0,0,0,0,0,0,4,
scooby_state_5ed065|55|-1 4,0,0,0,0,0,0,0,0,0,0,0,0,0,0,4,
scooby_state_47c331|37|26 0,4,0,0,0,0,0,0,0,0,0,0,0,0,0,4,
scooby_state_47c614|54|-1 4,0,0,0,0,0,0,0,0,0,0,0,0,0,0,4,
scooby_state_47c80b|44|17 0,3,0,0,1,0,0,0,0,0,0,0,0,0,0,4,
scooby_state_47c306|27|0 4,0,0,0,0,0,0,0,0,0,0,0,0,0,0,4,
scooby_state_47c32a|39|34 2,0,1,1,0,0,0,0,0,0,0,0,0,0,0,4,
scooby_state_451023|30|0 4,0,0,0,0,0,0,0,0,0,0,0,0,0,0,4,
scooby_state_451834|35|-5 0,1,2,1,0,0,0,0,0,0,0,0,0,0,0,4,
scooby_state_5ed078|34|-7 4,0,0,0,0,0,0,0,0,0,0,0,0,0,0,4,
scooby_state_4517fb|20|2 1,1,2,0,0,0,0,0,0,0,0,0,0,0,0,4,
scooby_state_5ed078|38|27 4,0,0,0,0,0,0,0,0,0,0,0,0,0,0,4,
scooby_state_4517fb|40|4 2,1,1,0,0,0,0,0,0,0,0,0,0,0,0,4,
scooby_state_5ed065|42|0 4,0,0,0,0,0,0,0,0,0,0,0,0,0,0,4,
scooby_state_5ed065|40|0 4,0,0,0,0,0,0,0,0,0,0,0,0,0,0,4,
scooby_state_47c306|18|0 2,2,0,0,0,0,0,0,0,0,0,0,0,0,0,4,
scooby_state_5ed065|7|-1 4,0,0,0,0,0,0,0,0,0,0,0,0,0,0,4,
scooby_state_5ed078|41|5 4,0,0,0,0,0,0,0,0,0,0,0,0,0,0,4,
scooby_state_47b50e|33|-2 4,0,0,0,0,0,0,0,0,0,0,0,0,0,0,4,
scooby_state_4517c1|31|17 4,0,0,0,0,0,0,0,0,0,0,0,0,0,0,4,
scooby_state_47c369|4|-35 0,0,0,0,1,1,1,1,0,0,0,0,0,0,0,4,
scooby_state_5ed065|35|-1 4,0,0,0,0,0,0,0,0,0,0,0,0,0,0,4,
scooby_state_47c1f7|4|-6 4,0,0,0,0,0,0,0,0,0,0,0,0,0,0,4,
scooby_state_5ed065|12|0 4,0,0,0,0,0,0,0,0,0,0,0,0,0,0,4,
scooby_state_58a4cb|49|0 4,0,0,0,0,0,0,0,0,0,0,0,0,0,0,4,
scooby_state_44e60b|31|1 4,0,0,0,0,0,0,0,0,0,0,0,0,0,0,4,
scooby_state_47c614|14|-1 4,0,0,0,0,0,0,0,0,0,0,0,0,0,0,4,
scooby_state_58a4cb|40|0 4,0,0,0,0,0,0,0,0,0,0,0,0,0,0,4,
scooby_state_5ed065|54|-2 4,0,0,0,0,0,0,0,0,0,0,0,0,0,0,4,
scooby_state_47b51c|40|21 3,1,0,0,0,0,0,0,0,0,0,0,0,0,0,4,
scooby_state_47c306|16|-4 1,1,2,0,0,0,0,0,0,0,0,0,0,0,0,4,
scooby_state_47b51c|40|36 3,1,0,0,0,0,0,0,0,0,0,0,0,0,0,4,
scooby_state_5ed065|52|-1 4,0,0,0,0,0,0,0,0,0,0,0,0,0,0,4,
scooby_state_47c3c3|32|-2 4,0,0,0,0,0,0,0,0,0,0,0,0,0,0,4,
scooby_state_47c3c3|33|6 4,0,0,0,0,0,0,0,0,0,0,0,0,0,0,4,
scooby_state_47bc8d|44|-1 0,0,0,0,0,0,0,3,1,0,0,0,0,0,0,4,
scooby_state_45236c|2|2 3,0,1,0,0,0,0,0,0,0,0,0,0,0,0,4,
scooby_state_47c331|37|27 4,0,0,0,0,0,0,0,0,0,0,0,0,0,0,4,
scooby_state_5ed065|20|4 4,0,0,0,0,0,0,0,0,0,0,0,0,0,0,4,
scooby_state_58a4cb|56|-1 4,0,0,0,0,0,0,0,0,0,0,0,0,0,0,4,
scooby_state_65f383|14|0 2,0,0,0,0,2,0,0,0,0,0,0,0,0,0,4,
scooby_state_5ed065|33|-1 4,0,0,0,0,0,0,0,0,0,0,0,0,0,0,4,
scooby_state_5ed065|60|-1 4,0,0,0,0,0,0,0,0,0,0,0,0,0,0,4,
scooby_state_5ed065|31|-1 4,0,0,0,0,0,0,0,0,0,0,0,0,0,0,4,
scooby_state_5ed065|60|0 4,0,0,0,0,0,0,0,0,0,0,0,0,0,0,4,
scooby_state_451834|40|-23 0,1,1,1,1,0,0,0,0,0,0,0,0,0,0,4,
scooby_state_47c614|24|-1 4,0,0,0,0,0,0,0,0,0,0,0,0,0,0,4,
scooby_state_5ed078|31|-3 4,0,0,0,0,0,0,0,0,0,0,0,0,0,0,4,
scooby_state_47c306|15|-31 4,0,0,0,0,0,0,0,0,0,0,0,0,0,0,4,
scooby_state_47c306|40|1 4,0,0,0,0,0,0,0,0,0,0,0,0,0,0,4,
scooby_state_451894|3|0 2,0,0,0,0,1,1,0,0,0,0,0,0,0,0,4,
scooby_state_47c306|20|4 4,0,0,0,0,0,0,0,0,0,0,0,0,0,0,4,
scooby_state_47c331|41|4 1,3,0,0,0,0,0,0,0,0,0,0,0,0,0,4,
scooby_state_450f3f|3|0 4,0,0,0,0,0,0,0,0,0,0,0,0,0,0,4,
scooby_state_47c62b|58|0 3,0,1,0,0,0,0,0,0,0,0,0,0,0,0,4,
scooby_state_44fa04|46|31 1,1,0,1,1,0,0,0,0,0,0,0,0,0,0,4,
scooby_state_47c614|15|-1 4,0,0,0,0,0,0,0,0,0,0,0,0,0,0,4,
scooby_state_47b80e|35|0 1,2,1,0,0,0,0,0,0,0,0,0,0,0,0,4,
scooby_state_47c331|36|-1 4,0,0,0,0,0,0,0,0,0,0,0,0,0,0,4,
scooby_state_47c331|36|-5 0,4,0,0,0,0,0,0,0,0,0,0,0,0,0,4,
scooby_state_4517fb|1|0 1,0,3,0,0,0,0,0,0,0,0,0,0,0,0,4,
scooby_state_5ed065|25|-1 4,0,0,0,0,0,0,0,0,0,0,0,0,0,0,4,
scooby_state_47c3c3|34|-15 4,0,0,0,0,0,0,0,0,0,0,0,0,0,0,4,
scooby_state_5ed078|36|-1 4,0,0,0,0,0,0,0,0,0,0,0,0,0,0,4,
scooby_state_47c306|58|0 4,0,0,0,0,0,0,0,0,0,0,0,0,0,0,4,
scooby_state_5ed065|20|-1 4,0,0,0,0,0,0,0,0,0,0,0,0,0,0,4,
scooby_state_451894|40|4 3,1,0,0,0,0,0,0,0,0,0,0,0,0,0,4,
scooby_state_5ed065|28|-1 4,0,0,0,0,0,0,0,0,0,0,0,0,0,0,4,
scooby_state_5ed065|22|-2 4,0,0,0,0,0,0,0,0,0,0,0,0,0,0,4,
scooby_state_5ed065|7|0 4,0,0,0,0,0,0,0,0,0,0,0,0,0,0,4,
scooby_state_5ed0bd|4|-15 3,0,1,0,0,0,0,0,0,0,0,0,0,0,0,4,
scooby_state_47c306|23|6 4,0,0,0,0,0,0,0,0,0,0,0,0,0,0,4,
scooby_state_47c306|39|-1 4,0,0,0,0,0,0,0,0,0,0,0,0,0,0,4,
scooby_state_47bc8d|54|-1 0,1,0,0,0,0,0,1,0,1,0,0,0,0,0,3,
scooby_state_6457d0|31|18 2,1,0,0,0,0,0,0,0,0,0,0,0,0,0,3,
scooby_state_44f9cb|12|-1 3,0,0,0,0,0,0,0,0,0,0,0,0,0,0,3,
scooby_state_5ed065|59|-1 3,0,0,0,0,0,0,0,0,0,0,0,0,0,0,3,
scooby_state_5ed065|44|-1 3,0,0,0,0,0,0,0,0,0,0,0,0,0,0,3,
scooby_state_62e5d1|13|-30 3,0,0,0,0,0,0,0,0,0,0,0,0,0,0,3,
scooby_state_47c614|59|-1 3,0,0,0,0,0,0,0,0,0,0,0,0,0,0,3,
scooby_state_47bc8d|21|-1 0,0,0,0,0,0,0,2,1,0,0,0,0,0,0,3,
scooby_state_65ff15|3|0 3,0,0,0,0,0,0,0,0,0,0,0,0,0,0,3,
scooby_state_47c614|61|-1 3,0,0,0,0,0,0,0,0,0,0,0,0,0,0,3,
scooby_state_5ed078|34|3 3,0,0,0,0,0,0,0,0,0,0,0,0,0,0,3,
scooby_state_49d4b4|2|0 2,0,0,0,1,0,0,0,0,0,0,0,0,0,0,3,
scooby_state_451834|58|2 0,0,0,0,1,0,2,0,0,0,0,0,0,0,0,3,
scooby_state_5ed065|13|-1 3,0,0,0,0,0,0,0,0,0,0,0,0,0,0,3,
scooby_state_47b838|32|0 0,0,1,0,0,1,1,0,0,0,0,0,0,0,0,3,
scooby_state_62e5b3|54|0 3,0,0,0,0,0,0,0,0,0,0,0,0,0,0,3,
scooby_state_62e630|8|0 3,0,0,0,0,0,0,0,0,0,0,0,0,0,0,3,
scooby_state_49d4b4|23|0 3,0,0,0,0,0,0,0,0,0,0,0,0,0,0,3,
scooby_state_47c614|33|-1 3,0,0,0,0,0,0,0,0,0,0,0,0,0,0,3,
scooby_state_65fe72|24|1 3,0,0,0,0,0,0,0,0,0,0,0,0,0,0,3,
scooby_state_44f9cb|25|-1 3,0,0,0,0,0,0,0,0,0,0,0,0,0,0,3,
scooby_state_5ed078|39|28 3,0,0,0,0,0,0,0,0,0,0,0,0,0,0,3,
scooby_state_47bc8d|15|-1 0,0,1,1,1,0,0,0,0,0,0,0,0,0,0,3,
scooby_state_5ed065|11|-1 3,0,0,0,0,0,0,0,0,0,0,0,0,0,0,3,
scooby_state_4517fb|16|12 3,0,0,0,0,0,0,0,0,0,0,0,0,0,0,3,
scooby_state_43d860|33|2 1,0,1,1,0,0,0,0,0,0,0,0,0,0,0,3,
scooby_state_4517fb|51|11 3,0,0,0,0,0,0,0,0,0,0,0,0,0,0,3,
scooby_state_47b50e|32|-5 3,0,0,0,0,0,0,0,0,0,0,0,0,0,0,3,
scooby_state_47c3c3|33|9 3,0,0,0,0,0,0,0,0,0,0,0,0,0,0,3,
scooby_state_5ed13b|20|-3 3,0,0,0,0,0,0,0,0,0,0,0,0,0,0,3,
scooby_state_5ed065|23|1 3,0,0,0,0,0,0,0,0,0,0,0,0,0,0,3,
scooby_state_47b7a7|16|-7 2,0,0,0,0,0,0,1,0,0,0,0,0,0,0,3,
scooby_state_6633b0|14|0 3,0,0,0,0,0,0,0,0,0,0,0,0,0,0,3,
scooby_state_44f9cb|60|-1 3,0,0,0,0,0,0,0,0,0,0,0,0,0,0,3,
scooby_state_451834|56|1 3,0,0,0,0,0,0,0,0,0,0,0,0,0,0,3,
scooby_state_65f443|17|3 3,0,0,0,0,0,0,0,0,0,0,0,0,0,0,3,
scooby_state_5ed065|61|-1 3,0,0,0,0,0,0,0,0,0,0,0,0,0,0,3,
scooby_state_47c32a|40|1 0,0,1,0,0,1,1,0,0,0,0,0,0,0,0,3,
scooby_state_4517fb|22|2 1,1,1,0,0,0,0,0,0,0,0,0,0,0,0,3,
scooby_state_65f79f|30|13 2,0,0,0,1,0,0,0,0,0,0,0,0,0,0,3,
scooby_state_58b7b0|30|0 3,0,0,0,0,0,0,0,0,0,0,0,0,0,0,3,
scooby_state_47c614|21|-1 3,0,0,0,0,0,0,0,0,0,0,0,0,0,0,3,
scooby_state_5ed065|23|-1 3,0,0,0,0,0,0,0,0,0,0,0,0,0,0,3,
scooby_state_62de98|55|0 3,0,0,0,0,0,0,0,0,0,0,0,0,0,0,3,
scooby_state_451882|20|0 3,0,0,0,0,0,0,0,0,0,0,0,0,0,0,3,
scooby_state_58b7c8|31|1 3,0,0,0,0,0,0,0,0,0,0,0,0,0,0,3,
scooby_state_65fd49|2|0 3,0,0,0,0,0,0,0,0,0,0,0,0,0,0,3,
scooby_state_5ed065|34|0 3,0,0,0,0,0,0,0,0,0,0,0,0,0,0,3,
scooby_state_4517fb|18|2 1,1,1,0,0,0,0,0,0,0,0,0,0,0,0,3,
scooby_state_5ed065|42|-1 3,0,0,0,0,0,0,0,0,0,0,0,0,0,0,3,
scooby_state_65f482|18|-12 3,0,0,0,0,0,0,0,0,0,0,0,0,0,0,3,
scooby_state_4516b1|8|-1 1,0,0,0,1,0,0,1,0,0,0,0,0,0,0,3,
scooby_state_5ed065|5|-1 3,0,0,0,0,0,0,0,0,0,0,0,0,0,0,3,
scooby_state_5b628a|10|-23 2,0,1,0,0,0,0,0,0,0,0,0,0,0,0,3,
scooby_state_47b5fb|28|-4 3,0,0,0,0,0,0,0,0,0,0,0,0,0,0,3,
scooby_state_451be6|34|1 3,0,0,0,0,0,0,0,0,0,0,0,0,0,0,3,
scooby_state_49d4c0|19|1 3,0,0,0,0,0,0,0,0,0,0,0,0,0,0,3,
scooby_state_47c62b|16|-2 3,0,0,0,0,0,0,0,0,0,0,0,0,0,0,3,
scooby_state_47c858|33|1 3,0,0,0,0,0,0,0,0,0,0,0,0,0,0,3,
scooby_state_5ed078|38|4 3,0,0,0,0,0,0,0,0,0,0,0,0,0,0,3,
scooby_state_5ed065|3|0 3,0,0,0,0,0,0,0,0,0,0,0,0,0,0,3,
scooby_state_660425|23|1 3,0,0,0,0,0,0,0,0,0,0,0,0,0,0,3,
scooby_state_44f9cb|8|-1 3,0,0,0,0,0,0,0,0,0,0,0,0,0,0,3,
scooby_state_660432|21|1 3,0,0,0,0,0,0,0,0,0,0,0,0,0,0,3,
scooby_state_452367|13|0 3,0,0,0,0,0,0,0,0,0,0,0,0,0,0,3,
scooby_state_47c614|7|-1 3,0,0,0,0,0,0,0,0,0,0,0,0,0,0,3,
scooby_state_44f9cb|18|-1 3,0,0,0,0,0,0,0,0,0,0,0,0,0,0,3,
scooby_state_451894|4|1 2,0,1,0,0,0,0,0,0,0,0,0,0,0,0,3,
scooby_state_47c10c|16|1 3,0,0,0,0,0,0,0,0,0,0,0,0,0,0,3,
scooby_state_65f840|33|1 3,0,0,0,0,0,0,0,0,0,0,0,0,0,0,3,
scooby_state_49d4b4|28|5 1,1,1,0,0,0,0,0,0,0,0,0,0,0,0,3,
scooby_state_451837|46|16 3,0,0,0,0,0,0,0,0,0,0,0,0,0,0,3,
scooby_state_47bc8d|28|7 3,0,0,0,0,0,0,0,0,0,0,0,0,0,0,3,
scooby_state_451028|33|0 3,0,0,0,0,0,0,0,0,0,0,0,0,0,0,3,
scooby_state_5ed065|27|0 3,0,0,0,0,0,0,0,0,0,0,0,0,0,0,3,
scooby_state_47c306|21|-14 3,0,0,0,0,0,0,0,0,0,0,0,0,0,0,3,
scooby_state_5ed065|56|-1 3,0,0,0,0,0,0,0,0,0,0,0,0,0,0,3,
scooby_state_62e8fd|63|0 3,0,0,0,0,0,0,0,0,0,0,0,0,0,0,3,
scooby_state_45236c|1|1 3,0,0,0,0,0,0,0,0,0,0,0,0,0,0,3,
scooby_state_65fe60|50|0 3,0,0,0,0,0,0,0,0,0,0,0,0,0,0,3,
scooby_state_451894|51|11 3,0,0,0,0,0,0,0,0,0,0,0,0,0,0,3,
scooby_state_47c614|6|-1 3,0,0,0,0,0,0,0,0,0,0,0,0,0,0,3,
scooby_state_45236c|15|3 2,0,1,0,0,0,0,0,0,0,0,0,0,0,0,3,
scooby_state_4517fb|4|1 1,1,1,0,0,0,0,0,0,0,0,0,0,0,0,3,
scooby_state_47c3c3|34|-10 3,0,0,0,0,0,0,0,0,0,0,0,0,0,0,3,
scooby_state_49d4b4|35|3 3,0,0,0,0,0,0,0,0,0,0,0,0,0,0,3,
scooby_state_5ed065|33|1 3,0,0,0,0,0,0,0,0,0,0,0,0,0,0,3,
scooby_state_65fd49|4|0 3,0,0,0,0,0,0,0,0,0,0,0,0,0,0,3,
scooby_state_58a4c1|1|-1 3,0,0,0,0,0,0,0,0,0,0,0,0,0,0,3,
scooby_state_58b7b4|61|39 2,0,1,0,0,0,0,0,0,0,0,0,0,0,0,3,
scooby_state_58a4c1|54|-1 3,0,0,0,0,0,0,0,0,0,0,0,0,0,0,3,
scooby_state_47bbb8|18|3 2,0,1,0,0,0,0,0,0,0,0,0,0,0,0,3,
scooby_state_47c80b|44|19 0,2,1,0,0,0,0,0,0,0,0,0,0,0,0,3,
scooby_state_47c614|34|-1 3,0,0,0,0,0,0,0,0,0,0,0,0,0,0,3,
scooby_state_47addf|50|0 3,0,0,0,0,0,0,0,0,0,0,0,0,0,0,3,
scooby_state_47c614|38|-1 3,0,0,0,0,0,0,0,0,0,0,0,0,0,0,3,
scooby_state_452385|14|0 3,0,0,0,0,0,0,0,0,0,0,0,0,0,0,3,
scooby_state_65f835|32|14 3,0,0,0,0,0,0,0,0,0,0,0,0,0,0,3,
scooby_state_44f9cb|16|-1 3,0,0,0,0,0,0,0,0,0,0,0,0,0,0,3,
scooby_state_45236c|57|3 3,0,0,0,0,0,0,0,0,0,0,0,0,0,0,3,
scooby_state_5ed065|21|0 3,0,0,0,0,0,0,0,0,0,0,0,0,0,0,3,
scooby_state_65f835|32|18 0,0,3,0,0,0,0,0,0,0,0,0,0,0,0,3,
scooby_state_65f383|14|1 3,0,0,0,0,0,0,0,0,0,0,0,0,0,0,3,
scooby_state_44f9cb|39|-1 3,0,0,0,0,0,0,0,0,0,0,0,0,0,0,3,
scooby_state_451894|3|-1 3,0,0,0,0,0,0,0,0,0,0,0,0,0,0,3,
scooby_state_47c614|62|-1 3,0,0,0,0,0,0,0,0,0,0,0,0,0,0,3,
scooby_state_451988|38|1 3,0,0,0,0,0,0,0,0,0,0,0,0,0,0,3,
scooby_state_47bc8d|61|-1 0,1,0,0,0,0,0,0,2,0,0,0,0,0,0,3,
scooby_state_49d4b4|32|4 1,0,2,0,0,0,0,0,0,0,0,0,0,0,0,3,
scooby_state_45236c|21|3 0,1,2,0,0,0,0,0,0,0,0,0,0,0,0,3,
scooby_state_47c3c3|34|0 3,0,0,0,0,0,0,0,0,0,0,0,0,0,0,3,
scooby_state_65fd49|50|0 3,0,0,0,0,0,0,0,0,0,0,0,0,0,0,3,
scooby_state_47c7c2|31|1 3,0,0,0,0,0,0,0,0,0,0,0,0,0,0,3,
scooby_state_49d4a0|18|0 3,0,0,0,0,0,0,0,0,0,0,0,0,0,0,3,
scooby_state_4517c1|31|1 3,0,0,0,0,0,0,0,0,0,0,0,0,0,0,3,
scooby_state_62dec1|56|1 3,0,0,0,0,0,0,0,0,0,0,0,0,0,0,3,
scooby_state_451826|62|0 3,0,0,0,0,0,0,0,0,0,0,0,0,0,0,3,
scooby_state_5ed065|30|-1 3,0,0,0,0,0,0,0,0,0,0,0,0,0,0,3,
scooby_state_65f844|25|4 3,0,0,0,0,0,0,0,0,0,0,0,0,0,0,3,
scooby_state_47c306|14|0 2,1,0,0,0,0,0,0,0,0,0,0,0,0,0,3,
scooby_state_4516cb|29|4 3,0,0,0,0,0,0,0,0,0,0,0,0,0,0,3,
scooby_state_65fd49|13|0 3,0,0,0,0,0,0,0,0,0,0,0,0,0,0,3,
scooby_state_47bc8d|42|-1 0,1,0,0,0,0,0,2,0,0,0,0,0,0,0,3,
scooby_state_65fd4d|14|1 3,0,0,0,0,0,0,0,0,0,0,0,0,0,0,3,
scooby_state_4517fb|34|2 0,0,3,0,0,0,0,0,0,0,0,0,0,0,0,3,
scooby_state_451834|62|0 2,0,0,0,0,0,0,0,0,0,0,0,0,0,0,2,
scooby_state_5ed065|54|-1 2,0,0,0,0,0,0,0,0,0,0,0,0,0,0,2,
scooby_state_451b87|46|8 2,0,0,0,0,0,0,0,0,0,0,0,0,0,0,2,
scooby_state_58a4cb|3|-1 2,0,0,0,0,0,0,0,0,0,0,0,0,0,0,2,
scooby_state_47c614|31|-1 2,0,0,0,0,0,0,0,0,0,0,0,0,0,0,2,
scooby_state_65fed7|23|-1 2,0,0,0,0,0,0,0,0,0,0,0,0,0,0,2,
scooby_state_47c3c3|36|-8 2,0,0,0,0,0,0,0,0,0,0,0,0,0,0,2,
scooby_state_44fb82|46|1 2,0,0,0,0,0,0,0,0,0,0,0,0,0,0,2,
scooby_state_47b7a7|44|-1 0,0,0,0,0,2,0,0,0,0,0,0,0,0,0,2,
scooby_state_44fb41|45|0 2,0,0,0,0,0,0,0,0,0,0,0,0,0,0,2,
scooby_state_4517fb|11|2 0,0,2,0,0,0,0,0,0,0,0,0,0,0,0,2,
scooby_state_47bbb8|14|3 2,0,0,0,0,0,0,0,0,0,0,0,0,0,0,2,
scooby_state_451387|14|1 2,0,0,0,0,0,0,0,0,0,0,0,0,0,0,2,
scooby_state_58a4cb|40|-1 2,0,0,0,0,0,0,0,0,0,0,0,0,0,0,2,
scooby_state_65fed7|22|-4 2,0,0,0,0,0,0,0,0,0,0,0,0,0,0,2,
scooby_state_5ed0bd|49|24 2,0,0,0,0,0,0,0,0,0,0,0,0,0,0,2,
scooby_state_4517f1|3|0 2,0,0,0,0,0,0,0,0,0,0,0,0,0,0,2,
scooby_state_5ed065|18|-5 2,0,0,0,0,0,0,0,0,0,0,0,0,0,0,2,
scooby_state_4517fb|61|2 0,0,2,0,0,0,0,0,0,0,0,0,0,0,0,2,
scooby_state_47bbf6|30|4 0,0,0,0,0,0,0,0,2,0,0,0,0,0,0,2,
scooby_state_4517fb|14|8 0,0,2,0,0,0,0,0,0,0,0,0,0,0,0,2,
scooby_state_451894|2|2 1,0,0,0,0,0,1,0,0,0,0,0,0,0,0,2,
scooby_state_58a490|50|4 2,0,0,0,0,0,0,0,0,0,0,0,0,0,0,2,
scooby_state_49d4b4|30|0 2,0,0,0,0,0,0,0,0,0,0,0,0,0,0,2,
scooby_state_5eb8dd|54|1 2,0,0,0,0,0,0,0,0,0,0,0,0,0,0,2,
scooby_state_58a4c1|17|-1 2,0,0,0,0,0,0,0,0,0,0,0,0,0,0,2,
scooby_state_58a4a4|18|0 2,0,0,0,0,0,0,0,0,0,0,0,0,0,0,2,
scooby_state_49d4b4|11|0 0,1,0,0,1,0,0,0,0,0,0,0,0,0,0,2,
scooby_state_5ed0db|22|5 2,0,0,0,0,0,0,0,0,0,0,0,0,0,0,2,
scooby_state_62e5b3|54|1 2,0,0,0,0,0,0,0,0,0,0,0,0,0,0,2,
scooby_state_451823|30|-3 1,0,1,0,0,0,0,0,0,0,0,0,0,0,0,2,
scooby_state_58a490|40|0 2,0,0,0,0,0,0,0,0,0,0,0,0,0,0,2,
scooby_state_45236c|30|3 0,0,2,0,0,0,0,0,0,0,0,0,0,0,0,2,
scooby_state_45188a|50|4 2,0,0,0,0,0,0,0,0,0,0,0,0,0,0,2,
scooby_state_43b78a|30|-31 2,0,0,0,0,0,0,0,0,0,0,0,0,0,0,2,
scooby_state_5ed065|14|-2 2,0,0,0,0,0,0,0,0,0,0,0,0,0,0,2,
scooby_state_5ed0db|39|6 2,0,0,0,0,0,0,0,0,0,0,0,0,0,0,2,
scooby_state_47bbb8|57|3 1,1,0,0,0,0,0,0,0,0,0,0,0,0,0,2,
scooby_state_44f9cb|22|-1 2,0,0,0,0,0,0,0,0,0,0,0,0,0,0,2,
scooby_state_47c10c|43|1 2,0,0,0,0,0,0,0,0,0,0,0,0,0,0,2,
scooby_state_451894|34|2 1,0,0,0,0,0,1,0,0,0,0,0,0,0,0,2,
scooby_state_5ed065|32|0 2,0,0,0,0,0,0,0,0,0,0,0,0,0,0,2,
scooby_state_5ed13b|23|0 1,1,0,0,0,0,0,0,0,0,0,0,0,0,0,2,
scooby_state_5eb75b|19|15 2,0,0,0,0,0,0,0,0,0,0,0,0,0,0,2,
scooby_state_451c06|40|1 2,0,0,0,0,0,0,0,0,0,0,0,0,0,0,2,
scooby_state_65dbc6|39|1 0,0,0,1,0,0,1,0,0,0,0,0,0,0,0,2,
scooby_state_5ed065|16|4 2,0,0,0,0,0,0,0,0,0,0,0,0,0,0,2,
scooby_state_43b17e|19|0 2,0,0,0,0,0,0,0,0,0,0,0,0,0,0,2,
scooby_state_45236c|18|3 1,0,1,0,0,0,0,0,0,0,0,0,0,0,0,2,
scooby_state_44f9cb|32|-1 2,0,0,0,0,0,0,0,0,0,0,0,0,0,0,2,
scooby_state_65fd49|23|0 2,0,0,0,0,0,0,0,0,0,0,0,0,0,0,2,
scooby_state_451894|16|4 0,0,0,0,0,0,0,1,1,0,0,0,0,0,0,2,
scooby_state_5eb8dd|48|1 2,0,0,0,0,0,0,0,0,0,0,0,0,0,0,2,
scooby_state_65fd4d|15|1 2,0,0,0,0,0,0,0,0,0,0,0,0,0,0,2,
scooby_state_58a4cb|16|-1 2,0,0,0,0,0,0,0,0,0,0,0,0,0,0,2,
scooby_state_5ed065|1|-1 2,0,0,0,0,0,0,0,0,0,0,0,0,0,0,2,
scooby_state_45236c|48|3 1,0,1,0,0,0,0,0,0,0,0,0,0,0,0,2,
scooby_state_5ed065|29|-25 2,0,0,0,0,0,0,0,0,0,0,0,0,0,0,2,
scooby_state_58b7b4|10|8 0,0,0,0,2,0,0,0,0,0,0,0,0,0,0,2,
scooby_state_47c10c|45|3 2,0,0,0,0,0,0,0,0,0,0,0,0,0,0,2,
scooby_state_49d4b4|43|1 1,0,0,0,1,0,0,0,0,0,0,0,0,0,0,2,
scooby_state_58a4a4|57|5 2,0,0,0,0,0,0,0,0,0,0,0,0,0,0,2,
scooby_state_43b1a2|7|1 2,0,0,0,0,0,0,0,0,0,0,0,0,0,0,2,
scooby_state_49d4b4|7|1 0,0,2,0,0,0,0,0,0,0,0,0,0,0,0,2,
scooby_state_45237b|26|5 2,0,0,0,0,0,0,0,0,0,0,0,0,0,0,2,
scooby_state_47c331|37|-9 0,2,0,0,0,0,0,0,0,0,0,0,0,0,0,2,
scooby_state_47c62b|49|-1 1,1,0,0,0,0,0,0,0,0,0,0,0,0,0,2,
scooby_state_45236c|50|3 1,0,1,0,0,0,0,0,0,0,0,0,0,0,0,2,
scooby_state_4517fb|29|2 0,0,2,0,0,0,0,0,0,0,0,0,0,0,0,2,
scooby_state_5ed13b|23|1 2,0,0,0,0,0,0,0,0,0,0,0,0,0,0,2,
scooby_state_5eb8dd|33|1 2,0,0,0,0,0,0,0,0,0,0,0,0,0,0,2,
scooby_state_451834|28|-4 2,0,0,0,0,0,0,0,0,0,0,0,0,0,0,2,
scooby_state_47b0fb|14|0 2,0,0,0,0,0,0,0,0,0,0,0,0,0,0,2,
scooby_state_64586d|14|-1 2,0,0,0,0,0,0,0,0,0,0,0,0,0,0,2,
scooby_state_6618dd|56|-1 2,0,0,0,0,0,0,0,0,0,0,0,0,0,0,2,
scooby_state_45182e|22|4 2,0,0,0,0,0,0,0,0,0,0,0,0,0,0,2,
scooby_state_65fd4d|2|1 2,0,0,0,0,0,0,0,0,0,0,0,0,0,0,2,
scooby_state_47c62b|1|-1 2,0,0,0,0,0,0,0,0,0,0,0,0,0,0,2,
scooby_state_47addf|8|0 2,0,0,0,0,0,0,0,0,0,0,0,0,0,0,2,
scooby_state_451387|14|-34 2,0,0,0,0,0,0,0,0,0,0,0,0,0,0,2,
scooby_state_451834|28|1 2,0,0,0,0,0,0,0,0,0,0,0,0,0,0,2,
scooby_state_45188a|28|-8 2,0,0,0,0,0,0,0,0,0,0,0,0,0,0,2,
scooby_state_4516b1|58|-1 0,0,0,0,1,0,1,0,0,0,0,0,0,0,0,2,
scooby_state_45187e|32|2 0,0,2,0,0,0,0,0,0,0,0,0,0,0,0,2,
scooby_state_64586d|50|-1 2,0,0,0,0,0,0,0,0,0,0,0,0,0,0,2,
scooby_state_451894|37|1 0,2,0,0,0,0,0,0,0,0,0,0,0,0,0,2,
scooby_state_451109|4|-32 2,0,0,0,0,0,0,0,0,0,0,0,0,0,0,2,
scooby_state_43b1b9|24|0 2,0,0,0,0,0,0,0,0,0,0,0,0,0,0,2,
scooby_state_5eb8dd|53|1 2,0,0,0,0,0,0,0,0,0,0,0,0,0,0,2,
scooby_state_5ed065|17|-3 2,0,0,0,0,0,0,0,0,0,0,0,0,0,0,2,
scooby_state_47b80e|48|1 2,0,0,0,0,0,0,0,0,0,0,0,0,0,0,2,
scooby_state_47c3c3|34|7 2,0,0,0,0,0,0,0,0,0,0,0,0,0,0,2,
scooby_state_44f9cb|19|-1 2,0,0,0,0,0,0,0,0,0,0,0,0,0,0,2,
scooby_state_45236c|39|2 1,0,1,0,0,0,0,0,0,0,0,0,0,0,0,2,
scooby_state_5eb75b|20|16 2,0,0,0,0,0,0,0,0,0,0,0,0,0,0,2,
scooby_state_4517fb|28|2 0,0,2,0,0,0,0,0,0,0,0,0,0,0,0,2,
scooby_state_451894|58|2 0,0,0,0,0,0,1,1,0,0,0,0,0,0,0,2,
scooby_state_45237b|23|5 2,0,0,0,0,0,0,0,0,0,0,0,0,0,0,2,
scooby_state_5ed065|3|-1 2,0,0,0,0,0,0,0,0,0,0,0,0,0,0,2,
scooby_state_5ed065|26|-1 2,0,0,0,0,0,0,0,0,0,0,0,0,0,0,2,
scooby_state_4517fb|30|2 0,0,2,0,0,0,0,0,0,0,0,0,0,0,0,2,
scooby_state_451894|36|1 2,0,0,0,0,0,0,0,0,0,0,0,0,0,0,2,
scooby_state_65fed7|20|-3 2,0,0,0,0,0,0,0,0,0,0,0,0,0,0,2,
scooby_state_47bc8d|11|-1 0,0,0,0,0,1,1,0,0,0,0,0,0,0,0,2,
scooby_state_451894|17|1 0,2,0,0,0,0,0,0,0,0,0,0,0,0,0,2,
scooby_state_58b7b4|36|2 2,0,0,0,0,0,0,0,0,0,0,0,0,0,0,2,
scooby_state_451023|0|0 2,0,0,0,0,0,0,0,0,0,0,0,0,0,0,2,
scooby_state_45188a|22|4 2,0,0,0,0,0,0,0,0,0,0,0,0,0,0,2,
scooby_state_45188a|6|0 2,0,0,0,0,0,0,0,0,0,0,0,0,0,0,2,
scooby_state_451834|51|2 0,0,0,0,0,0,2,0,0,0,0,0,0,0,0,2,
scooby_state_47bc8d|52|2 2,0,0,0,0,0,0,0,0,0,0,0,0,0,0,2,
scooby_state_64586d|14|0 2,0,0,0,0,0,0,0,0,0,0,0,0,0,0,2,
scooby_state_5ed065|34|2 2,0,0,0,0,0,0,0,0,0,0,0,0,0,0,2,
scooby_state_58a490|40|12 1,0,1,0,0,0,0,0,0,0,0,0,0,0,0,2,
scooby_state_47bc8d|52|-1 0,0,0,0,0,0,0,0,1,1,0,0,0,0,0,2,
scooby_state_44f9cb|35|-1 2,0,0,0,0,0,0,0,0,0,0,0,0,0,0,2,
scooby_state_5ed065|63|9 2,0,0,0,0,0,0,0,0,0,0,0,0,0,0,2,
scooby_state_47c3c3|35|11 2,0,0,0,0,0,0,0,0,0,0,0,0,0,0,2,
scooby_state_451c06|61|1 2,0,0,0,0,0,0,0,0,0,0,0,0,0,0,2,
scooby_state_5ed065|30|11 2,0,0,0,0,0,0,0,0,0,0,0,0,0,0,2,
scooby_state_5ed065|51|-2 2,0,0,0,0,0,0,0,0,0,0,0,0,0,0,2,
scooby_state_45236c|34|3 1,0,1,0,0,0,0,0,0,0,0,0,0,0,0,2,
scooby_state_47c62b|17|1 2,0,0,0,0,0,0,0,0,0,0,0,0,0,0,2,
scooby_state_44f9cb|38|-1 2,0,0,0,0,0,0,0,0,0,0,0,0,0,0,2,
scooby_state_451c06|56|1 2,0,0,0,0,0,0,0,0,0,0,0,0,0,0,2,
scooby_state_5eb8dd|63|1 2,0,0,0,0,0,0,0,0,0,0,0,0,0,0,2,
scooby_state_43c945|6|0 0,2,0,0,0,0,0,0,0,0,0,0,0,0,0,2,
scooby_state_5ed065|19|-10 2,0,0,0,0,0,0,0,0,0,0,0,0,0,0,2,
scooby_state_5eb8dd|51|1 2,0,0,0,0,0,0,0,0,0,0,0,0,0,0,2,
scooby_state_47c10c|45|2 2,0,0,0,0,0,0,0,0,0,0,0,0,0,0,2,
scooby_state_45182e|56|6 2,0,0,0,0,0,0,0,0,0,0,0,0,0,0,2,
scooby_state_4517fb|9|2 0,0,2,0,0,0,0,0,0,0,0,0,0,0,0,2,
scooby_state_47c306|7|0 2,0,0,0,0,0,0,0,0,0,0,0,0,0,0,2,
scooby_state_4517fb|13|2 0,0,2,0,0,0,0,0,0,0,0,0,0,0,0,2,
scooby_state_5ed065|43|-1 2,0,0,0,0,0,0,0,0,0,0,0,0,0,0,2,
scooby_state_47c306|17|-1 2,0,0,0,0,0,0,0,0,0,0,0,0,0,0,2,
scooby_state_4517fb|7|0 1,0,1,0,0,0,0,0,0,0,0,0,0,0,0,2,
scooby_state_451882|3|0 2,0,0,0,0,0,0,0,0,0,0,0,0,0,0,2,
scooby_state_65fd49|37|0 2,0,0,0,0,0,0,0,0,0,0,0,0,0,0,2,
scooby_state_58a4c1|59|-1 2,0,0,0,0,0,0,0,0,0,0,0,0,0,0,2,
scooby_state_65fd49|22|0 2,0,0,0,0,0,0,0,0,0,0,0,0,0,0,2,
scooby_state_65dbc6|2|0 1,0,0,0,0,0,0,0,1,0,0,0,0,0,0,2,
scooby_state_451834|60|0 0,0,0,0,0,2,0,0,0,0,0,0,0,0,0,2,
scooby_state_5eb8dd|55|1 2,0,0,0,0,0,0,0,0,0,0,0,0,0,0,2,
scooby_state_58a490|22|4 2,0,0,0,0,0,0,0,0,0,0,0,0,0,0,2,
scooby_state_4517fb|16|4 0,0,2,0,0,0,0,0,0,0,0,0,0,0,0,2,
scooby_state_660340|13|0 2,0,0,0,0,0,0,0,0,0,0,0,0,0,0,2,
scooby_state_58a4a4|0|0 2,0,0,0,0,0,0,0,0,0,0,0,0,0,0,2,
scooby_state_45236c|35|1 1,1,0,0,0,0,0,0,0,0,0,0,0,0,0,2,
scooby_state_47c306|23|5 2,0,0,0,0,0,0,0,0,0,0,0,0,0,0,2,
scooby_state_49d4b4|3|0 1,0,0,0,1,0,0,0,0,0,0,0,0,0,0,2,
scooby_state_5ed065|17|1 2,0,0,0,0,0,0,0,0,0,0,0,0,0,0,2,
scooby_state_5ed065|10|0 2,0,0,0,0,0,0,0,0,0,0,0,0,0,0,2,
scooby_state_450f3f|58|0 2,0,0,0,0,0,0,0,0,0,0,0,0,0,0,2,
scooby_state_451be6|7|1 2,0,0,0,0,0,0,0,0,0,0,0,0,0,0,2,
scooby_state_49d4b4|2|1 1,0,0,0,1,0,0,0,0,0,0,0,0,0,0,2,
scooby_state_58a4c1|23|-1 2,0,0,0,0,0,0,0,0,0,0,0,0,0,0,2,
scooby_state_5ed065|32|1 2,0,0,0,0,0,0,0,0,0,0,0,0,0,0,2,
scooby_state_5ed065|35|1 2,0,0,0,0,0,0,0,0,0,0,0,0,0,0,2,
scooby_state_44f9cb|1|-1 2,0,0,0,0,0,0,0,0,0,0,0,0,0,0,2,
scooby_state_5ed065|63|4 2,0,0,0,0,0,0,0,0,0,0,0,0,0,0,2,
scooby_state_451680|14|-2 2,0,0,0,0,0,0,0,0,0,0,0,0,0,0,2,
scooby_state_5eb8dd|36|1 2,0,0,0,0,0,0,0,0,0,0,0,0,0,0,2,
scooby_state_450f3f|59|0 2,0,0,0,0,0,0,0,0,0,0,0,0,0,0,2,
scooby_state_451894|36|2 1,0,0,0,0,0,1,0,0,0,0,0,0,0,0,2,
scooby_state_5ed065|15|3 2,0,0,0,0,0,0,0,0,0,0,0,0,0,0,2,
scooby_state_65fcaf|26|6 2,0,0,0,0,0,0,0,0,0,0,0,0,0,0,2,
scooby_state_47c10c|51|7 2,0,0,0,0,0,0,0,0,0,0,0,0,0,0,2,
scooby_state_451c06|33|1 2,0,0,0,0,0,0,0,0,0,0,0,0,0,0,2,
scooby_state_4517fb|63|2 0,0,2,0,0,0,0,0,0,0,0,0,0,0,0,2,
scooby_state_450f3f|60|0 2,0,0,0,0,0,0,0,0,0,0,0,0,0,0,2,
scooby_state_451a18|11|0 2,0,0,0,0,0,0,0,0,0,0,0,0,0,0,2,
scooby_state_451826|58|0 2,0,0,0,0,0,0,0,0,0,0,0,0,0,0,2,
scooby_state_47c306|14|-4 1,1,0,0,0,0,0,0,0,0,0,0,0,0,0,2,
scooby_state_47bbf6|35|4 0,0,0,0,0,0,0,0,2,0,0,0,0,0,0,2,
scooby_state_5ed065|54|2 2,0,0,0,0,0,0,0,0,0,0,0,0,0,0,2,
scooby_state_451370|13|0 2,0,0,0,0,0,0,0,0,0,0,0,0,0,0,2,
scooby_state_45236c|17|3 2,0,0,0,0,0,0,0,0,0,0,0,0,0,0,2,
scooby_state_4517fb|11|4 0,1,1,0,0,0,0,0,0,0,0,0,0,0,0,2,
scooby_state_451834|53|2 0,0,0,0,0,0,2,0,0,0,0,0,0,0,0,2,
scooby_state_47b5fb|25|-1 2,0,0,0,0,0,0,0,0,0,0,0,0,0,0,2,
scooby_state_62f7a0|30|0 2,0,0,0,0,0,0,0,0,0,0,0,0,0,0,2,
scooby_state_47b7a7|50|-1 0,1,0,0,0,0,0,1,0,0,0,0,0,0,0,2,
scooby_state_47c7c2|31|17 2,0,0,0,0,0,0,0,0,0,0,0,0,0,0,2,
scooby_state_47bc15|34|-1 0,0,0,0,0,1,0,1,0,0,0,0,0,0,0,2,
scooby_state_65fd4d|38|1 2,0,0,0,0,0,0,0,0,0,0,0,0,0,0,2,
scooby_state_47b7a7|35|7 2,0,0,0,0,0,0,0,0,0,0,0,0,0,0,2,
scooby_state_45182e|28|-8 2,0,0,0,0,0,0,0,0,0,0,0,0,0,0,2,
scooby_state_47c3c3|32|-1 2,0,0,0,0,0,0,0,0,0,0,0,0,0,0,2,
scooby_state_44e60b|17|1 2,0,0,0,0,0,0,0,0,0,0,0,0,0,0,2,
scooby_state_47c614|37|-1 2,0,0,0,0,0,0,0,0,0,0,0,0,0,0,2,
scooby_state_43aacb|27|-2 2,0,0,0,0,0,0,0,0,0,0,0,0,0,0,2,
scooby_state_43c953|61|0 1,0,0,0,1,0,0,0,0,0,0,0,0,0,0,2,
scooby_state_47b5fb|24|-4 2,0,0,0,0,0,0,0,0,0,0,0,0,0,0,2,
scooby_state_5ed065|57|1 2,0,0,0,0,0,0,0,0,0,0,0,0,0,0,2,
scooby_state_47c10c|12|3 2,0,0,0,0,0,0,0,0,0,0,0,0,0,0,2,
scooby_state_5ed0db|40|6 2,0,0,0,0,0,0,0,0,0,0,0,0,0,0,2,
scooby_state_65fe72|24|-1 2,0,0,0,0,0,0,0,0,0,0,0,0,0,0,2,
scooby_state_45236c|36|3 1,0,1,0,0,0,0,0,0,0,0,0,0,0,0,2,
scooby_state_58a4a4|24|0 2,0,0,0,0,0,0,0,0,0,0,0,0,0,0,2,
scooby_state_65dbc6|19|2 0,0,1,1,0,0,0,0,0,0,0,0,0,0,0,2,
scooby_state_451834|23|1 2,0,0,0,0,0,0,0,0,0,0,0,0,0,0,2,
scooby_state_451851|33|2 2,0,0,0,0,0,0,0,0,0,0,0,0,0,0,2,
scooby_state_49d4b4|35|0 2,0,0,0,0,0,0,0,0,0,0,0,0,0,0,2,
scooby_state_5ed078|31|21 2,0,0,0,0,0,0,0,0,0,0,0,0,0,0,2,
scooby_state_47bc15|27|-1 0,0,0,0,0,1,0,1,0,0,0,0,0,0,0,2,
scooby_state_451894|11|4 0,0,1,0,1,0,0,0,0,0,0,0,0,0,0,2,
scooby_state_5ed065|49|-1 2,0,0,0,0,0,0,0,0,0,0,0,0,0,0,2,
scooby_state_5ed13b|25|2 2,0,0,0,0,0,0,0,0,0,0,0,0,0,0,2,
scooby_state_5ed065|24|7 2,0,0,0,0,0,0,0,0,0,0,0,0,0,0,2,
scooby_state_4517fb|36|2 0,0,2,0,0,0,0,0,0,0,0,0,0,0,0,2,
scooby_state_65fd49|14|0 2,0,0,0,0,0,0,0,0,0,0,0,0,0,0,2,
scooby_state_5ed065|30|3 2,0,0,0,0,0,0,0,0,0,0,0,0,0,0,2,
scooby_state_5eb8dd|50|1 2,0,0,0,0,0,0,0,0,0,0,0,0,0,0,2,
scooby_state_43ab0c|16|0 2,0,0,0,0,0,0,0,0,0,0,0,0,0,0,2,
scooby_state_4a10a3|38|1 2,0,0,0,0,0,0,0,0,0,0,0,0,0,0,2,
scooby_state_4516b1|20|-1 2,0,0,0,0,0,0,0,0,0,0,0,0,0,0,2,
scooby_state_5ed065|35|14 2,0,0,0,0,0,0,0,0,0,0,0,0,0,0,2,
scooby_state_43aacb|31|4 2,0,0,0,0,0,0,0,0,0,0,0,0,0,0,2,
scooby_state_4516b1|3|-1 2,0,0,0,0,0,0,0,0,0,0,0,0,0,0,2,
scooby_state_62e63d|52|0 1,0,0,0,1,0,0,0,0,0,0,0,0,0,0,2,
scooby_state_58a4c1|47|0 2,0,0,0,0,0,0,0,0,0,0,0,0,0,0,2,
scooby_state_58a4cb|13|0 2,0,0,0,0,0,0,0,0,0,0,0,0,0,0,2,
scooby_state_47c306|17|-5 2,0,0,0,0,0,0,0,0,0,0,0,0,0,0,2,
scooby_state_5eb8dd|49|1 2,0,0,0,0,0,0,0,0,0,0,0,0,0,0,2,
scooby_state_4516be|2|-3 2,0,0,0,0,0,0,0,0,0,0,0,0,0,0,2,
scooby_state_4516be|39|7 2,0,0,0,0,0,0,0,0,0,0,0,0,0,0,2,
scooby_state_4516cb|41|2 2,0,0,0,0,0,0,0,0,0,0,0,0,0,0,2,
scooby_state_45237b|19|5 2,0,0,0,0,0,0,0,0,0,0,0,0,0,0,2,
scooby_state_58a490|32|10 2,0,0,0,0,0,0,0,0,0,0,0,0,0,0,2,
scooby_state_5ed065|5|0 2,0,0,0,0,0,0,0,0,0,0,0,0,0,0,2,
scooby_state_58a4cb|15|0 2,0,0,0,0,0,0,0,0,0,0,0,0,0,0,2,
scooby_state_65f411|40|-23 1,0,1,0,0,0,0,0,0,0,0,0,0,0,0,2,
scooby_state_5ed065|18|2 2,0,0,0,0,0,0,0,0,0,0,0,0,0,0,2,
scooby_state_5ed065|58|0 2,0,0,0,0,0,0,0,0,0,0,0,0,0,0,2,
scooby_state_5ed065|24|1 2,0,0,0,0,0,0,0,0,0,0,0,0,0,0,2,
scooby_state_47c331|36|26 0,2,0,0,0,0,0,0,0,0,0,0,0,0,0,2,
scooby_state_47bc8d|31|-1 0,0,0,0,0,0,0,1,1,0,0,0,0,0,0,2,
scooby_state_47c369|4|-1 2,0,0,0,0,0,0,0,0,0,0,0,0,0,0,2,
scooby_state_47bc8d|9|-1 0,0,0,0,0,1,1,0,0,0,0,0,0,0,0,2,
scooby_state_47bc8d|63|2 2,0,0,0,0,0,0,0,0,0,0,0,0,0,0,2,
scooby_state_47bbb8|55|3 2,0,0,0,0,0,0,0,0,0,0,0,0,0,0,2,
scooby_state_4517fb|26|2 0,0,2,0,0,0,0,0,0,0,0,0,0,0,0,2,
scooby_state_45236c|0|0 2,0,0,0,0,0,0,0,0,0,0,0,0,0,0,2,
scooby_state_5eb8dd|61|1 2,0,0,0,0,0,0,0,0,0,0,0,0,0,0,2,
scooby_state_4517fb|5|4 0,0,2,0,0,0,0,0,0,0,0,0,0,0,0,2,
scooby_state_4517fb|27|4 0,0,2,0,0,0,0,0,0,0,0,0,0,0,0,2,
scooby_state_65fd49|17|0 2,0,0,0,0,0,0,0,0,0,0,0,0,0,0,2,
scooby_state_64545e|15|1 2,0,0,0,0,0,0,0,0,0,0,0,0,0,0,2,
scooby_state_451894|27|4 0,0,0,0,1,0,0,1,0,0,0,0,0,0,0,2,
scooby_state_47c10c|16|3 2,0,0,0,0,0,0,0,0,0,0,0,0,0,0,2,
scooby_state_58a490|28|-18 2,0,0,0,0,0,0,0,0,0,0,0,0,0,0,2,
scooby_state_47c10c|38|2 2,0,0,0,0,0,0,0,0,0,0,0,0,0,0,2,
scooby_state_5ed065|18|-4 2,0,0,0,0,0,0,0,0,0,0,0,0,0,0,2,
scooby_state_5ed065|29|-1 2,0,0,0,0,0,0,0,0,0,0,0,0,0,0,2,
scooby_state_65f358|13|0 2,0,0,0,0,0,0,0,0,0,0,0,0,0,0,2,
scooby_state_47b50e|33|-1 2,0,0,0,0,0,0,0,0,0,0,0,0,0,0,2,
scooby_state_451160|16|0 2,0,0,0,0,0,0,0,0,0,0,0,0,0,0,2,
scooby_state_5b628a|10|-36 2,0,0,0,0,0,0,0,0,0,0,0,0,0,0,2,
scooby_state_65f411|7|0 0,0,0,0,0,1,0,1,0,0,0,0,0,0,0,2,
scooby_state_451834|8|-53 2,0,0,0,0,0,0,0,0,0,0,0,0,0,0,2,
scooby_state_47c3c3|31|-5 2,0,0,0,0,0,0,0,0,0,0,0,0,0,0,2,
scooby_state_44f9cb|0|-1 2,0,0,0,0,0,0,0,0,0,0,0,0,0,0,2,
scooby_state_64545e|51|1 1,1,0,0,0,0,0,0,0,0,0,0,0,0,0,2,
scooby_state_5ed0db|26|5 2,0,0,0,0,0,0,0,0,0,0,0,0,0,0,2,
scooby_state_451086|2|1 1,0,0,0,0,0,0,0,0,0,0,1,0,0,0,2,
scooby_state_65dbc6|52|1 0,1,1,0,0,0,0,0,0,0,0,0,0,0,0,2,
scooby_state_451894|63|2 0,0,0,0,1,1,0,0,0,0,0,0,0,0,0,2,
scooby_state_451894|61|2 1,0,0,0,0,1,0,0,0,0,0,0,0,0,0,2,
scooby_state_439c63|10|0 1,0,0,0,1,0,0,0,0,0,0,0,0,0,0,2,
scooby_state_47bc15|22|-1 0,0,0,0,1,1,0,0,0,0,0,0,0,0,0,2,
scooby_state_451882|32|4 2,0,0,0,0,0,0,0,0,0,0,0,0,0,0,2,
scooby_state_43b1a6|55|0 2,0,0,0,0,0,0,0,0,0,0,0,0,0,0,2,
scooby_state_47c614|12|-1 2,0,0,0,0,0,0,0,0,0,0,0,0,0,0,2,
scooby_state_4516be|25|-2 2,0,0,0,0,0,0,0,0,0,0,0,0,0,0,2,
scooby_state_66010a|20|12 2,0,0,0,0,0,0,0,0,0,0,0,0,0,0,2,
scooby_state_47c331|36|25 0,2,0,0,0,0,0,0,0,0,0,0,0,0,0,2,
scooby_state_65fd49|44|0 2,0,0,0,0,0,0,0,0,0,0,0,0,0,0,2,
scooby_state_451834|22|4 0,0,2,0,0,0,0,0,0,0,0,0,0,0,0,2,
scooby_state_451834|45|2 0,0,0,0,0,0,2,0,0,0,0,0,0,0,0,2,
scooby_state_5eb75b|19|-1 1,0,1,0,0,0,0,0,0,0,0,0,0,0,0,2,
scooby_state_4a10a3|2|1 2,0,0,0,0,0,0,0,0,0,0,0,0,0,0,2,
scooby_state_5eb787|30|0 2,0,0,0,0,0,0,0,0,0,0,0,0,0,0,2,
scooby_state_4517f1|20|-4 2,0,0,0,0,0,0,0,0,0,0,0,0,0,0,2,
scooby_state_451781|30|16 2,0,0,0,0,0,0,0,0,0,0,0,0,0,0,2,
scooby_state_4517fb|17|1 0,0,2,0,0,0,0,0,0,0,0,0,0,0,0,2,
scooby_state_4517f1|36|8 2,0,0,0,0,0,0,0,0,0,0,0,0,0,0,2,
scooby_state_451826|23|-4 2,0,0,0,0,0,0,0,0,0,0,0,0,0,0,2,
scooby_state_45182e|18|0 2,0,0,0,0,0,0,0,0,0,0,0,0,0,0,2,
scooby_state_47c62b|4|-1 2,0,0,0,0,0,0,0,0,0,0,0,0,0,0,2,
scooby_state_451805|32|1 2,0,0,0,0,0,0,0,0,0,0,0,0,0,0,2,
scooby_state_47c306|60|0 1,0,0,1,0,0,0,0,0,0,0,0,0,0,0,2,
scooby_state_4516cb|48|5 2,0,0,0,0,0,0,0,0,0,0,0,0,0,0,2,
scooby_state_5eb8dd|62|1 2,0,0,0,0,0,0,0,0,0,0,0,0,0,0,2,
scooby_state_451894|32|1 0,2,0,0,0,0,0,0,0,0,0,0,0,0,0,2,
scooby_state_451894|5|4 0,0,0,0,1,0,1,0,0,0,0,0,0,0,0,2,
scooby_state_47b7a7|14|2 0,2,0,0,0,0,0,0,0,0,0,0,0,0,0,2,
scooby_state_47b80e|50|1 2,0,0,0,0,0,0,0,0,0,0,0,0,0,0,2,
scooby_state_451c00|48|2 2,0,0,0,0,0,0,0,0,0,0,0,0,0,0,2,
scooby_state_47c614|18|-1 2,0,0,0,0,0,0,0,0,0,0,0,0,0,0,2,
scooby_state_58a490|18|0 2,0,0,0,0,0,0,0,0,0,0,0,0,0,0,2,
scooby_state_47b7a7|12|-2 2,0,0,0,0,0,0,0,0,0,0,0,0,0,0,2,
scooby_state_47c614|11|-1 2,0,0,0,0,0,0,0,0,0,0,0,0,0,0,2,
scooby_state_4517fb|18|7 0,0,2,0,0,0,0,0,0,0,0,0,0,0,0,2,
scooby_state_43aacb|29|0 2,0,0,0,0,0,0,0,0,0,0,0,0,0,0,2,
scooby_state_4517fb|2|2 0,0,2,0,0,0,0,0,0,0,0,0,0,0,0,2,
scooby_state_58b7b4|14|2 2,0,0,0,0,0,0,0,0,0,0,0,0,0,0,2,
scooby_state_47bbb8|3|0 2,0,0,0,0,0,0,0,0,0,0,0,0,0,0,2,
scooby_state_47c62b|16|-1 2,0,0,0,0,0,0,0,0,0,0,0,0,0,0,2,
scooby_state_65fd49|19|0 2,0,0,0,0,0,0,0,0,0,0,0,0,0,0,2,
scooby_state_660087|8|-14 1,0,0,0,0,1,0,0,0,0,0,0,0,0,0,2,
scooby_state_47c614|52|-1 2,0,0,0,0,0,0,0,0,0,0,0,0,0,0,2,
scooby_state_47c790|30|16 2,0,0,0,0,0,0,0,0,0,0,0,0,0,0,2,
scooby_state_47addf|23|0 2,0,0,0,0,0,0,0,0,0,0,0,0,0,0,2,
scooby_state_47c3c3|33|-11 2,0,0,0,0,0,0,0,0,0,0,0,0,0,0,2,
scooby_state_58a4c1|36|-1 2,0,0,0,0,0,0,0,0,0,0,0,0,0,0,2,
scooby_state_65dbc6|42|1 1,0,0,0,0,0,0,0,0,0,0,1,0,0,0,2,
scooby_state_58a4a4|20|0 2,0,0,0,0,0,0,0,0,0,0,0,0,0,0,2,
scooby_state_58a4c1|19|-1 2,0,0,0,0,0,0,0,0,0,0,0,0,0,0,2,
scooby_state_451c06|35|1 2,0,0,0,0,0,0,0,0,0,0,0,0,0,0,2,
scooby_state_47c614|17|-1 2,0,0,0,0,0,0,0,0,0,0,0,0,0,0,2,
scooby_state_5eb8dd|0|0 2,0,0,0,0,0,0,0,0,0,0,0,0,0,0,2,
scooby_state_47c306|18|2 2,0,0,0,0,0,0,0,0,0,0,0,0,0,0,2,
scooby_state_65fd49|1|0 2,0,0,0,0,0,0,0,0,0,0,0,0,0,0,2,
scooby_state_4516be|52|-3 2,0,0,0,0,0,0,0,0,0,0,0,0,0,0,2,
scooby_state_47b7a7|4|-1 0,1,0,0,0,0,0,1,0,0,0,0,0,0,0,2,
scooby_state_47c306|18|-4 2,0,0,0,0,0,0,0,0,0,0,0,0,0,0,2,
scooby_state_47bbb8|47|3 2,0,0,0,0,0,0,0,0,0,0,0,0,0,0,2,
scooby_state_451834|15|1 2,0,0,0,0,0,0,0,0,0,0,0,0,0,0,2,
scooby_state_47addf|49|0 2,0,0,0,0,0,0,0,0,0,0,0,0,0,0,2,
scooby_state_47c306|42|0 2,0,0,0,0,0,0,0,0,0,0,0,0,0,0,2,
scooby_state_451ca4|58|0 1,0,1,0,0,0,0,0,0,0,0,0,0,0,0,2,
scooby_state_47bbf6|37|3 2,0,0,0,0,0,0,0,0,0,0,0,0,0,0,2,
scooby_state_451826|48|-5 2,0,0,0,0,0,0,0,0,0,0,0,0,0,0,2,
scooby_state_451834|16|4 0,0,1,0,0,0,1,0,0,0,0,0,0,0,0,2,
scooby_state_47b7a7|5|0 2,0,0,0,0,0,0,0,0,0,0,0,0,0,0,2,
scooby_state_4517fb|21|2 0,0,2,0,0,0,0,0,0,0,0,0,0,0,0,2,
scooby_state_5eb8dd|1|1 2,0,0,0,0,0,0,0,0,0,0,0,0,0,0,2,
scooby_state_5ed065|57|-1 2,0,0,0,0,0,0,0,0,0,0,0,0,0,0,2,
scooby_state_43bba0|46|1 2,0,0,0,0,0,0,0,0,0,0,0,0,0,0,2,
scooby_state_4510bb|9|0 2,0,0,0,0,0,0,0,0,0,0,0,0,0,0,2,
scooby_state_47bbb8|2|2 2,0,0,0,0,0,0,0,0,0,0,0,0,0,0,2,
scooby_state_58a4cb|25|0 2,0,0,0,0,0,0,0,0,0,0,0,0,0,0,2,
scooby_state_4516b1|32|-1 0,0,0,1,0,0,1,0,0,0,0,0,0,0,0,2,
scooby_state_5ed065|58|-1 2,0,0,0,0,0,0,0,0,0,0,0,0,0,0,2,
scooby_state_5ed065|53|-1 2,0,0,0,0,0,0,0,0,0,0,0,0,0,0,2,
scooby_state_65dbc6|50|1 1,0,0,0,0,0,0,1,0,0,0,0,0,0,0,2,
scooby_state_65fd49|61|0 2,0,0,0,0,0,0,0,0,0,0,0,0,0,0,2,
scooby_state_47afa6|11|1 2,0,0,0,0,0,0,0,0,0,0,0,0,0,0,2,
scooby_state_65dbc6|33|1 1,0,0,0,0,0,0,1,0,0,0,0,0,0,0,2,
scooby_state_660382|14|1 2,0,0,0,0,0,0,0,0,0,0,0,0,0,0,2,
scooby_state_6657d6|11|-3 2,0,0,0,0,0,0,0,0,0,0,0,0,0,0,2,
scooby_state_58a4c1|52|-1 2,0,0,0,0,0,0,0,0,0,0,0,0,0,0,2,
scooby_state_47c306|18|-2 2,0,0,0,0,0,0,0,0,0,0,0,0,0,0,2,
scooby_state_45182e|44|28 2,0,0,0,0,0,0,0,0,0,0,0,0,0,0,2,
scooby_state_45237b|40|6 2,0,0,0,0,0,0,0,0,0,0,0,0,0,0,2,
scooby_state_4517fb|15|2 0,0,2,0,0,0,0,0,0,0,0,0,0,0,0,2,
scooby_state_47c10c|15|1 2,0,0,0,0,0,0,0,0,0,0,0,0,0,0,2,
scooby_state_4517fb|21|0 0,0,2,0,0,0,0,0,0,0,0,0,0,0,0,2,
scooby_state_47b80e|21|1 2,0,0,0,0,0,0,0,0,0,0,0,0,0,0,2,
scooby_state_47bc8d|6|-1 0,0,0,0,0,0,0,2,0,0,0,0,0,0,0,2,
scooby_state_65fd4d|51|1 2,0,0,0,0,0,0,0,0,0,0,0,0,0,0,2,
scooby_state_47addf|47|0 2,0,0,0,0,0,0,0,0,0,0,0,0,0,0,2,
scooby_state_45236c|9|3 2,0,0,0,0,0,0,0,0,0,0,0,0,0,0,2,
scooby_state_4517fb|58|0 0,0,2,0,0,0,0,0,0,0,0,0,0,0,0,2,
scooby_state_58a4cb|36|0 2,0,0,0,0,0,0,0,0,0,0,0,0,0,0,2,
scooby_state_5ed065|32|-2 2,0,0,0,0,0,0,0,0,0,0,0,0,0,0,2,
scooby_state_4517fb|37|1 0,0,2,0,0,0,0,0,0,0,0,0,0,0,0,2,
scooby_state_58a4cb|34|-1 2,0,0,0,0,0,0,0,0,0,0,0,0,0,0,2,
scooby_state_47bbf6|46|6 2,0,0,0,0,0,0,0,0,0,0,0,0,0,0,2,
scooby_state_58a4a4|35|0 0,0,0,0,0,2,0,0,0,0,0,0,0,0,0,2,
scooby_state_47addf|22|-9 2,0,0,0,0,0,0,0,0,0,0,0,0,0,0,2,
scooby_state_47c306|12|0 2,0,0,0,0,0,0,0,0,0,0,0,0,0,0,2,
scooby_state_47c10c|7|3 1,0,0,0,0,0,0,1,0,0,0,0,0,0,0,2,
scooby_state_45236c|12|1 2,0,0,0,0,0,0,0,0,0,0,0,0,0,0,2,
scooby_state_4516cb|15|-1 2,0,0,0,0,0,0,0,0,0,0,0,0,0,0,2,
scooby_state_47c10c|14|0 2,0,0,0,0,0,0,0,0,0,0,0,0,0,0,2,
scooby_state_5eb8dd|35|1 2,0,0,0,0,0,0,0,0,0,0,0,0,0,0,2,
scooby_state_5ed065|32|-1 2,0,0,0,0,0,0,0,0,0,0,0,0,0,0,2,
scooby_state_5ed078|38|2 2,0,0,0,0,0,0,0,0,0,0,0,0,0,0,2,
scooby_state_47bc8d|13|-1 0,0,0,1,1,0,0,0,0,0,0,0,0,0,0,2,
scooby_state_43ac03|36|-3 2,0,0,0,0,0,0,0,0,0,0,0,0,0,0,2,
scooby_state_451834|49|2 0,0,0,0,0,0,2,0,0,0,0,0,0,0,0,2,
scooby_state_47c614|63|2 2,0,0,0,0,0,0,0,0,0,0,0,0,0,0,2,
scooby_state_65fd49|18|0 1,0,0,0,0,0,0,0,0,0,1,0,0,0,0,2,
scooby_state_43abb0|46|-2 2,0,0,0,0,0,0,0,0,0,0,0,0,0,0,2,
scooby_state_5eb8dd|5|1 2,0,0,0,0,0,0,0,0,0,0,0,0,0,0,2,
scooby_state_451834|61|2 0,0,0,0,0,0,0,2,0,0,0,0,0,0,0,2,
scooby_state_47bc8d|40|-1 0,0,0,0,0,0,0,1,1,0,0,0,0,0,0,2,
scooby_state_43b2d1|22|0 2,0,0,0,0,0,0,0,0,0,0,0,0,0,0,2,
scooby_state_5eb8dd|6|1 2,0,0,0,0,0,0,0,0,0,0,0,0,0,0,2,
scooby_state_43c830|32|-5 2,0,0,0,0,0,0,0,0,0,0,0,0,0,0,2,
scooby_state_451009|16|-3 2,0,0,0,0,0,0,0,0,0,0,0,0,0,0,2,
scooby_state_43c841|33|1 2,0,0,0,0,0,0,0,0,0,0,0,0,0,0,2,
scooby_state_452385|14|1 2,0,0,0,0,0,0,0,0,0,0,0,0,0,0,2,
scooby_state_47b5fb|26|-7 2,0,0,0,0,0,0,0,0,0,0,0,0,0,0,2,
scooby_state_5eb8dd|34|1 2,0,0,0,0,0,0,0,0,0,0,0,0,0,0,2,
scooby_state_43b2b1|21|2 1,0,1,0,0,0,0,0,0,0,0,0,0,0,0,2,
scooby_state_47c306|19|0 2,0,0,0,0,0,0,0,0,0,0,0,0,0,0,2,
scooby_state_451be6|41|3 2,0,0,0,0,0,0,0,0,0,0,0,0,0,0,2,
scooby_state_451c06|58|1 2,0,0,0,0,0,0,0,0,0,0,0,0,0,0,2,
scooby_state_47c3c3|33|-1 2,0,0,0,0,0,0,0,0,0,0,0,0,0,0,2,
scooby_state_451834|54|0 0,0,0,0,0,0,2,0,0,0,0,0,0,0,0,2,
scooby_state_47c1f7|4|-31 0,0,2,0,0,0,0,0,0,0,0,0,0,0,0,2,
scooby_state_47c10c|45|0 2,0,0,0,0,0,0,0,0,0,0,0,0,0,0,2,
scooby_state_43aacb|28|-3 2,0,0,0,0,0,0,0,0,0,0,0,0,0,0,2,
scooby_state_451150|60|16 2,0,0,0,0,0,0,0,0,0,0,0,0,0,0,2,
scooby_state_47c331|35|-6 0,2,0,0,0,0,0,0,0,0,0,0,0,0,0,2,
scooby_state_451c92|59|1 2,0,0,0,0,0,0,0,0,0,0,0,0,0,0,2,
scooby_state_43b4c0|19|1 2,0,0,0,0,0,0,0,0,0,0,0,0,0,0,2,
scooby_state_43b4b0|24|0 2,0,0,0,0,0,0,0,0,0,0,0,0,0,0,2,
scooby_state_45236c|7|3 2,0,0,0,0,0,0,0,0,0,0,0,0,0,0,2,
scooby_state_47bc8d|35|7 2,0,0,0,0,0,0,0,0,0,0,0,0,0,0,2,
scooby_state_4517fb|58|2 0,0,2,0,0,0,0,0,0,0,0,0,0,0,0,2,
scooby_state_451834|6|4 0,0,0,0,0,0,2,0,0,0,0,0,0,0,0,2,
scooby_state_65fcaf|26|2 2,0,0,0,0,0,0,0,0,0,0,0,0,0,0,2,
scooby_state_47b80e|47|0 2,0,0,0,0,0,0,0,0,0,0,0,0,0,0,2,
scooby_state_47b80e|31|0 1,0,0,0,0,0,1,0,0,0,0,0,0,0,0,2,
scooby_state_47c614|55|-1 2,0,0,0,0,0,0,0,0,0,0,0,0,0,0,2,
scooby_state_47b7a7|5|1 2,0,0,0,0,0,0,0,0,0,0,0,0,0,0,2,
scooby_state_58a4c1|56|-1 2,0,0,0,0,0,0,0,0,0,0,0,0,0,0,2,
scooby_state_5ed065|55|1 2,0,0,0,0,0,0,0,0,0,0,0,0,0,0,2,
scooby_state_47c614|20|-1 2,0,0,0,0,0,0,0,0,0,0,0,0,0,0,2,
scooby_state_5ed065|4|-1 2,0,0,0,0,0,0,0,0,0,0,0,0,0,0,2,
scooby_state_4516b1|2|-1 1,0,0,0,0,0,1,0,0,0,0,0,0,0,0,2,
scooby_state_47bc15|32|-1 0,0,0,0,0,1,0,1,0,0,0,0,0,0,0,2,
scooby_state_451834|55|2 0,0,0,0,0,0,2,0,0,0,0,0,0,0,0,2,
scooby_state_4516cb|49|-1 2,0,0,0,0,0,0,0,0,0,0,0,0,0,0,2,
scooby_state_58a490|4|0 2,0,0,0,0,0,0,0,0,0,0,0,0,0,0,2,
scooby_state_4516b1|12|-1 2,0,0,0,0,0,0,0,0,0,0,0,0,0,0,2,
scooby_state_58a4a4|50|0 0,0,0,1,0,0,1,0,0,0,0,0,0,0,0,2,
scooby_state_47bbf6|33|4 0,0,0,0,0,0,0,0,2,0,0,0,0,0,0,2,
scooby_state_58a4cb|49|-1 2,0,0,0,0,0,0,0,0,0,0,0,0,0,0,2,
scooby_state_47bc15|29|-1 0,0,0,0,0,0,0,1,0,0,0,0,1,0,0,2,
scooby_state_5ed065|47|-2 2,0,0,0,0,0,0,0,0,0,0,0,0,0,0,2,
scooby_state_47bc8d|26|-1 0,0,0,0,0,0,0,1,1,0,0,0,0,0,0,2,
scooby_state_58ae92|5|1 0,0,1,0,0,0,0,0,0,1,0,0,0,0,0,2,
scooby_state_47bbf6|28|4 0,0,0,0,0,0,0,0,2,0,0,0,0,0,0,2,
scooby_state_47bc8d|17|-27 2,0,0,0,0,0,0,0,0,0,0,0,0,0,0,2,
scooby_state_43b2c1|57|2 2,0,0,0,0,0,0,0,0,0,0,0,0,0,0,2,
scooby_state_5eb8dd|60|1 2,0,0,0,0,0,0,0,0,0,0,0,0,0,0,2,
scooby_state_5eb8dd|42|1 2,0,0,0,0,0,0,0,0,0,0,0,0,0,0,2,
scooby_state_47c306|35|0 2,0,0,0,0,0,0,0,0,0,0,0,0,0,0,2,
scooby_state_451834|47|2 0,0,0,0,0,0,2,0,0,0,0,0,0,0,0,2,
scooby_state_451894|18|0 0,0,0,0,0,1,1,0,0,0,0,0,0,0,0,2,
scooby_state_65dbc6|16|3 2,0,0,0,0,0,0,0,0,0,0,0,0,0,0,2,
scooby_state_47bc15|24|-1 0,0,0,0,0,1,0,1,0,0,0,0,0,0,0,2,
scooby_state_47bbf6|25|4 0,0,0,0,0,0,0,0,2,0,0,0,0,0,0,2,
scooby_state_47c306|20|-2 2,0,0,0,0,0,0,0,0,0,0,0,0,0,0,2,
scooby_state_49d4b4|0|0 0,1,1,0,0,0,0,0,0,0,0,0,0,0,0,2,
scooby_state_451834|17|1 2,0,0,0,0,0,0,0,0,0,0,0,0,0,0,2,
scooby_state_65fd49|41|0 2,0,0,0,0,0,0,0,0,0,0,0,0,0,0,2,
scooby_state_47c10c|41|3 1,0,0,0,0,0,0,1,0,0,0,0,0,0,0,2,
scooby_state_47bbb8|53|3 2,0,0,0,0,0,0,0,0,0,0,0,0,0,0,2,
scooby_state_58a4a4|2|-55 2,0,0,0,0,0,0,0,0,0,0,0,0,0,0,2,
scooby_state_47bc8d|50|-1 0,0,0,0,0,0,0,0,0,2,0,0,0,0,0,2,
scooby_state_450f3f|57|0 2,0,0,0,0,0,0,0,0,0,0,0,0,0,0,2,
scooby_state_43ba0f|44|-17 2,0,0,0,0,0,0,0,0,0,0,0,0,0,0,2,
scooby_state_47addf|48|-3 2,0,0,0,0,0,0,0,0,0,0,0,0,0,0,2,
scooby_state_451834|2|1 2,0,0,0,0,0,0,0,0,0,0,0,0,0,0,2,
scooby_state_451834|1|-2 2,0,0,0,0,0,0,0,0,0,0,0,0,0,0,2,
scooby_state_5ed065|45|-1 2,0,0,0,0,0,0,0,0,0,0,0,0,0,0,2,
scooby_state_47b80e|47|-1 2,0,0,0,0,0,0,0,0,0,0,0,0,0,0,2,
scooby_state_5ed078|31|-5 2,0,0,0,0,0,0,0,0,0,0,0,0,0,0,2,
scooby_state_65fd49|21|0 2,0,0,0,0,0,0,0,0,0,0,0,0,0,0,2,
scooby_state_43b998|38|1 2,0,0,0,0,0,0,0,0,0,0,0,0,0,0,2,
scooby_state_5ed065|1|1 2,0,0,0,0,0,0,0,0,0,0,0,0,0,0,2,
scooby_state_451834|62|4 0,0,0,0,0,0,2,0,0,0,0,0,0,0,0,2,
scooby_state_58c170|7|-1 2,0,0,0,0,0,0,0,0,0,0,0,0,0,0,2,
scooby_state_47addf|51|1 2,0,0,0,0,0,0,0,0,0,0,0,0,0,0,2,
scooby_state_47c10c|17|1 2,0,0,0,0,0,0,0,0,0,0,0,0,0,0,2,
scooby_state_47bc15|45|-1 0,0,0,0,0,1,0,1,0,0,0,0,0,0,0,2,
scooby_state_47bc15|36|-1 0,0,0,0,0,1,0,1,0,0,0,0,0,0,0,2,
scooby_state_58a4c1|46|-1 2,0,0,0,0,0,0,0,0,0,0,0,0,0,0,2,
scooby_state_58a4a4|47|11 2,0,0,0,0,0,0,0,0,0,0,0,0,0,0,2,
scooby_state_451834|3|-8 2,0,0,0,0,0,0,0,0,0,0,0,0,0,0,2,
scooby_state_47c10c|18|1 2,0,0,0,0,0,0,0,0,0,0,0,0,0,0,2,
scooby_state_47c614|47|-1 2,0,0,0,0,0,0,0,0,0,0,0,0,0,0,2,
scooby_state_45237b|6|-53 1,0,0,0,0,0,0,0,0,0,0,0,0,0,0,1,
scooby_state_451010|10|3 0,0,1,0,0,0,0,0,0,0,0,0,0,0,0,1,
scooby_state_47c10c|10|-3 1,0,0,0,0,0,0,0,0,0,0,0,0,0,0,1,
scooby_state_58b7d5|30|-24 1,0,0,0,0,0,0,0,0,0,0,0,0,0,0,1,
scooby_state_5ed065|18|1 1,0,0,0,0,0,0,0,0,0,0,0,0,0,0,1,
scooby_state_45236c|50|7 1,0,0,0,0,0,0,0,0,0,0,0,0,0,0,1,
scooby_state_58a4a4|16|0 1,0,0,0,0,0,0,0,0,0,0,0,0,0,0,1,
scooby_state_5ed0db|24|4 1,0,0,0,0,0,0,0,0,0,0,0,0,0,0,1,
scooby_state_450f44|34|1 1,0,0,0,0,0,0,0,0,0,0,0,0,0,0,1,
scooby_state_47c614|8|-1 1,0,0,0,0,0,0,0,0,0,0,0,0,0,0,1,
scooby_state_451b87|46|46 1,0,0,0,0,0,0,0,0,0,0,0,0,0,0,1,
scooby_state_45236c|55|-7 1,0,0,0,0,0,0,0,0,0,0,0,0,0,0,1,
scooby_state_58a4cb|53|22 1,0,0,0,0,0,0,0,0,0,0,0,0,0,0,1,
scooby_state_47c614|51|-1 1,0,0,0,0,0,0,0,0,0,0,0,0,0,0,1,
scooby_state_5ed0db|26|9 1,0,0,0,0,0,0,0,0,0,0,0,0,0,0,1,
scooby_state_4517c1|31|-27 1,0,0,0,0,0,0,0,0,0,0,0,0,0,0,1,
scooby_state_49d4b4|59|3 1,0,0,0,0,0,0,0,0,0,0,0,0,0,0,1,
scooby_state_4516cb|13|-5 1,0,0,0,0,0,0,0,0,0,0,0,0,0,0,1,
scooby_state_65dbc6|6|2 0,0,0,1,0,0,0,0,0,0,0,0,0,0,0,1,
scooby_state_4510bb|63|7 1,0,0,0,0,0,0,0,0,0,0,0,0,0,0,1,
scooby_state_47b80e|50|15 1,0,0,0,0,0,0,0,0,0,0,0,0,0,0,1,
scooby_state_44e605|53|23 1,0,0,0,0,0,0,0,0,0,0,0,0,0,0,1,
scooby_state_451e00|33|-2 1,0,0,0,0,0,0,0,0,0,0,0,0,0,0,1,
scooby_state_6633e8|13|-1 1,0,0,0,0,0,0,0,0,0,0,0,0,0,0,1,
scooby_state_58b7b4|10|-6 1,0,0,0,0,0,0,0,0,0,0,0,0,0,0,1,
scooby_state_45188a|6|4 1,0,0,0,0,0,0,0,0,0,0,0,0,0,0,1,
scooby_state_451c17|51|-7 1,0,0,0,0,0,0,0,0,0,0,0,0,0,0,1,
scooby_state_45236c|52|3 0,0,1,0,0,0,0,0,0,0,0,0,0,0,0,1,
scooby_state_58c150|5|-3 1,0,0,0,0,0,0,0,0,0,0,0,0,0,0,1,
scooby_state_47b80e|53|6 1,0,0,0,0,0,0,0,0,0,0,0,0,0,0,1,
scooby_state_5eb8dd|11|1 1,0,0,0,0,0,0,0,0,0,0,0,0,0,0,1,
scooby_state_44e601|24|1 1,0,0,0,0,0,0,0,0,0,0,0,0,0,0,1,
scooby_state_65fec2|59|1 1,0,0,0,0,0,0,0,0,0,0,0,0,0,0,1,
scooby_state_451834|27|0 0,0,0,0,1,0,0,0,0,0,0,0,0,0,0,1,
scooby_state_451009|15|-4 1,0,0,0,0,0,0,0,0,0,0,0,0,0,0,1,
scooby_state_65ff01|60|4 1,0,0,0,0,0,0,0,0,0,0,0,0,0,0,1,
scooby_state_4a1010|0|-5 1,0,0,0,0,0,0,0,0,0,0,0,0,0,0,1,
scooby_state_65f407|16|2 1,0,0,0,0,0,0,0,0,0,0,0,0,0,0,1,
scooby_state_451010|16|1 0,0,1,0,0,0,0,0,0,0,0,0,0,0,0,1,
scooby_state_451e46|42|-4 1,0,0,0,0,0,0,0,0,0,0,0,0,0,0,1,
scooby_state_47c614|22|-1 1,0,0,0,0,0,0,0,0,0,0,0,0,0,0,1,
scooby_state_58b7b4|42|30 0,1,0,0,0,0,0,0,0,0,0,0,0,0,0,1,
scooby_state_5ed065|43|1 1,0,0,0,0,0,0,0,0,0,0,0,0,0,0,1,
scooby_state_58b7b4|38|18 1,0,0,0,0,0,0,0,0,0,0,0,0,0,0,1,
scooby_state_47c614|56|-1 1,0,0,0,0,0,0,0,0,0,0,0,0,0,0,1,
scooby_state_451010|3|-7 1,0,0,0,0,0,0,0,0,0,0,0,0,0,0,1,
scooby_state_49d4b4|23|1 0,0,1,0,0,0,0,0,0,0,0,0,0,0,0,1,
scooby_state_47bc8d|1|-1 0,1,0,0,0,0,0,0,0,0,0,0,0,0,0,1,
scooby_state_451834|52|0 1,0,0,0,0,0,0,0,0,0,0,0,0,0,0,1,
scooby_state_645380|14|2 1,0,0,0,0,0,0,0,0,0,0,0,0,0,0,1,
scooby_state_456494|63|8 1,0,0,0,0,0,0,0,0,0,0,0,0,0,0,1,
scooby_state_44e60b|47|5 1,0,0,0,0,0,0,0,0,0,0,0,0,0,0,1,
scooby_state_45237b|33|5 1,0,0,0,0,0,0,0,0,0,0,0,0,0,0,1,
scooby_state_4a1160|5|0 1,0,0,0,0,0,0,0,0,0,0,0,0,0,0,1,
scooby_state_62e890|43|1 1,0,0,0,0,0,0,0,0,0,0,0,0,0,0,1,
scooby_state_451010|7|1 0,0,1,0,0,0,0,0,0,0,0,0,0,0,0,1,
scooby_state_451ca4|19|4 0,0,0,1,0,0,0,0,0,0,0,0,0,0,0,1,
scooby_state_660185|6|-23 1,0,0,0,0,0,0,0,0,0,0,0,0,0,0,1,
scooby_state_45187e|49|2 0,0,1,0,0,0,0,0,0,0,0,0,0,0,0,1,
scooby_state_5ed0db|6|0 1,0,0,0,0,0,0,0,0,0,0,0,0,0,0,1,
scooby_state_451e00|19|0 1,0,0,0,0,0,0,0,0,0,0,0,0,0,0,1,
scooby_state_44e5f0|23|0 1,0,0,0,0,0,0,0,0,0,0,0,0,0,0,1,
scooby_state_47b90e|36|2 1,0,0,0,0,0,0,0,0,0,0,0,0,0,0,1,
scooby_state_49d3e1|62|4 0,1,0,0,0,0,0,0,0,0,0,0,0,0,0,1,
scooby_state_62e760|15|0 1,0,0,0,0,0,0,0,0,0,0,0,0,0,0,1,
scooby_state_4516be|6|-3 1,0,0,0,0,0,0,0,0,0,0,0,0,0,0,1,
scooby_state_451bd0|19|6 1,0,0,0,0,0,0,0,0,0,0,0,0,0,0,1,
scooby_state_451150|5|-30 1,0,0,0,0,0,0,0,0,0,0,0,0,0,0,1,
scooby_state_45187e|42|2 1,0,0,0,0,0,0,0,0,0,0,0,0,0,0,1,
scooby_state_62e630|42|-6 0,0,1,0,0,0,0,0,0,0,0,0,0,0,0,1,
scooby_state_49d4b4|54|9 0,0,1,0,0,0,0,0,0,0,0,0,0,0,0,1,
scooby_state_451834|3|-4 1,0,0,0,0,0,0,0,0,0,0,0,0,0,0,1,
scooby_state_49d4b4|46|2 0,0,1,0,0,0,0,0,0,0,0,0,0,0,0,1,
scooby_state_47ae42|57|1 1,0,0,0,0,0,0,0,0,0,0,0,0,0,0,1,
scooby_state_451894|35|-1 1,0,0,0,0,0,0,0,0,0,0,0,0,0,0,1,
scooby_state_65f600|24|1 1,0,0,0,0,0,0,0,0,0,0,0,0,0,0,1,
scooby_state_451894|21|2 0,0,0,0,1,0,0,0,0,0,0,0,0,0,0,1,
scooby_state_451c06|19|1 1,0,0,0,0,0,0,0,0,0,0,0,0,0,0,1,
scooby_state_660106|4|1 1,0,0,0,0,0,0,0,0,0,0,0,0,0,0,1,
scooby_state_45236c|4|3 1,0,0,0,0,0,0,0,0,0,0,0,0,0,0,1,
scooby_state_58b7d5|32|7 1,0,0,0,0,0,0,0,0,0,0,0,0,0,0,1,
scooby_state_5ed065|21|-11 1,0,0,0,0,0,0,0,0,0,0,0,0,0,0,1,
scooby_state_451894|58|0 0,0,0,0,0,1,0,0,0,0,0,0,0,0,0,1,
scooby_state_451834|2|0 0,0,0,0,0,0,1,0,0,0,0,0,0,0,0,1,
scooby_state_4520f6|3|0 1,0,0,0,0,0,0,0,0,0,0,0,0,0,0,1,
scooby_state_49d4b4|49|11 1,0,0,0,0,0,0,0,0,0,0,0,0,0,0,1,
scooby_state_58b7b4|44|44 0,1,0,0,0,0,0,0,0,0,0,0,0,0,0,1,
scooby_state_5eb8dd|9|1 1,0,0,0,0,0,0,0,0,0,0,0,0,0,0,1,
scooby_state_45237b|58|33 1,0,0,0,0,0,0,0,0,0,0,0,0,0,0,1,
scooby_state_47addf|22|2 0,0,0,0,1,0,0,0,0,0,0,0,0,0,0,1,
scooby_state_5eb8dd|52|1 1,0,0,0,0,0,0,0,0,0,0,0,0,0,0,1,
scooby_state_45236c|40|2 1,0,0,0,0,0,0,0,0,0,0,0,0,0,0,1,
scooby_state_5ed0db|25|9 1,0,0,0,0,0,0,0,0,0,0,0,0,0,0,1,
scooby_state_450f44|50|3 1,0,0,0,0,0,0,0,0,0,0,0,0,0,0,1,
scooby_state_45237b|57|28 1,0,0,0,0,0,0,0,0,0,0,0,0,0,0,1,
scooby_state_49d4b4|45|14 1,0,0,0,0,0,0,0,0,0,0,0,0,0,0,1,
scooby_state_5b628a|10|-22 1,0,0,0,0,0,0,0,0,0,0,0,0,0,0,1,
scooby_state_645300|12|-7 1,0,0,0,0,0,0,0,0,0,0,0,0,0,0,1,
scooby_state_451000|0|-53 1,0,0,0,0,0,0,0,0,0,0,0,0,0,0,1,
scooby_state_65dd7f|53|5 1,0,0,0,0,0,0,0,0,0,0,0,0,0,0,1,
scooby_state_47c040|1|-3 1,0,0,0,0,0,0,0,0,0,0,0,0,0,0,1,
scooby_state_4517fb|14|6 1,0,0,0,0,0,0,0,0,0,0,0,0,0,0,1,
scooby_state_58a4c1|29|-1 1,0,0,0,0,0,0,0,0,0,0,0,0,0,0,1,
scooby_state_65dc10|48|1 1,0,0,0,0,0,0,0,0,0,0,0,0,0,0,1,
scooby_state_47b800|32|-6 1,0,0,0,0,0,0,0,0,0,0,0,0,0,0,1,
scooby_state_43b720|28|16 1,0,0,0,0,0,0,0,0,0,0,0,0,0,0,1,
scooby_state_5ed0c1|3|1 1,0,0,0,0,0,0,0,0,0,0,0,0,0,0,1,
scooby_state_451d4e|52|-2 1,0,0,0,0,0,0,0,0,0,0,0,0,0,0,1,
scooby_state_64545e|58|1 1,0,0,0,0,0,0,0,0,0,0,0,0,0,0,1,
scooby_state_451be6|38|2 1,0,0,0,0,0,0,0,0,0,0,0,0,0,0,1,
scooby_state_5eb8dd|56|1 1,0,0,0,0,0,0,0,0,0,0,0,0,0,0,1,
scooby_state_44f9cb|52|-1 1,0,0,0,0,0,0,0,0,0,0,0,0,0,0,1,
scooby_state_5ed078|34|4 1,0,0,0,0,0,0,0,0,0,0,0,0,0,0,1,
scooby_state_4516be|54|-7 1,0,0,0,0,0,0,0,0,0,0,0,0,0,0,1,
scooby_state_47ad85|54|-9 1,0,0,0,0,0,0,0,0,0,0,0,0,0,0,1,
scooby_state_450fbd|13|-3 1,0,0,0,0,0,0,0,0,0,0,0,0,0,0,1,
scooby_state_451b9d|58|5 1,0,0,0,0,0,0,0,0,0,0,0,0,0,0,1,
scooby_state_5ed0db|8|5 1,0,0,0,0,0,0,0,0,0,0,0,0,0,0,1,
scooby_state_4516be|8|-3 1,0,0,0,0,0,0,0,0,0,0,0,0,0,0,1,
scooby_state_58a508|20|1 1,0,0,0,0,0,0,0,0,0,0,0,0,0,0,1,
scooby_state_450f44|36|2 1,0,0,0,0,0,0,0,0,0,0,0,0,0,0,1,
scooby_state_49d4ab|24|0 1,0,0,0,0,0,0,0,0,0,0,0,0,0,0,1,
scooby_state_49d4b4|31|1 0,0,0,1,0,0,0,0,0,0,0,0,0,0,0,1,
scooby_state_6454c7|19|19 1,0,0,0,0,0,0,0,0,0,0,0,0,0,0,1,
scooby_state_58a4a4|63|48 1,0,0,0,0,0,0,0,0,0,0,0,0,0,0,1,
scooby_state_65dbc6|29|0 1,0,0,0,0,0,0,0,0,0,0,0,0,0,0,1,
scooby_state_45212b|4|-5 1,0,0,0,0,0,0,0,0,0,0,0,0,0,0,1,
scooby_state_451976|37|24 1,0,0,0,0,0,0,0,0,0,0,0,0,0,0,1,
scooby_state_451be6|39|-6 1,0,0,0,0,0,0,0,0,0,0,0,0,0,0,1,
scooby_state_451bd0|9|7 1,0,0,0,0,0,0,0,0,0,0,0,0,0,0,1,
scooby_state_5ed065|33|20 1,0,0,0,0,0,0,0,0,0,0,0,0,0,0,1,
scooby_state_5ed065|36|17 1,0,0,0,0,0,0,0,0,0,0,0,0,0,0,1,
scooby_state_44e60b|1|1 1,0,0,0,0,0,0,0,0,0,0,0,0,0,0,1,
scooby_state_5ed065|26|3 1,0,0,0,0,0,0,0,0,0,0,0,0,0,0,1,
scooby_state_45182e|12|-2 1,0,0,0,0,0,0,0,0,0,0,0,0,0,0,1,
scooby_state_62e630|53|0 1,0,0,0,0,0,0,0,0,0,0,0,0,0,0,1,
scooby_state_5ed065|56|3 1,0,0,0,0,0,0,0,0,0,0,0,0,0,0,1,
scooby_state_5ed0db|1|-21 1,0,0,0,0,0,0,0,0,0,0,0,0,0,0,1,
scooby_state_451370|13|8 1,0,0,0,0,0,0,0,0,0,0,0,0,0,0,1,
scooby_state_47b80e|32|9 1,0,0,0,0,0,0,0,0,0,0,0,0,0,0,1,
scooby_state_4517fb|18|4 0,0,1,0,0,0,0,0,0,0,0,0,0,0,0,1,
scooby_state_5eb644|25|1 1,0,0,0,0,0,0,0,0,0,0,0,0,0,0,1,
scooby_state_65fd15|52|1 1,0,0,0,0,0,0,0,0,0,0,0,0,0,0,1,
scooby_state_451826|58|-4 1,0,0,0,0,0,0,0,0,0,0,0,0,0,0,1,
scooby_state_49d4b4|12|-26 0,0,1,0,0,0,0,0,0,0,0,0,0,0,0,1,
scooby_state_58ae90|58|1 1,0,0,0,0,0,0,0,0,0,0,0,0,0,0,1,
scooby_state_4516be|16|-17 1,0,0,0,0,0,0,0,0,0,0,0,0,0,0,1,
scooby_state_5ec342|13|1 1,0,0,0,0,0,0,0,0,0,0,0,0,0,0,1,
scooby_state_5ed065|2|-25 1,0,0,0,0,0,0,0,0,0,0,0,0,0,0,1,
scooby_state_661c02|48|1 1,0,0,0,0,0,0,0,0,0,0,0,0,0,0,1,
scooby_state_4510bb|15|7 1,0,0,0,0,0,0,0,0,0,0,0,0,0,0,1,
scooby_state_450fbd|34|0 1,0,0,0,0,0,0,0,0,0,0,0,0,0,0,1,
scooby_state_451894|30|2 0,0,0,0,0,0,1,0,0,0,0,0,0,0,0,1,
scooby_state_45187e|59|1 1,0,0,0,0,0,0,0,0,0,0,0,0,0,0,1,
scooby_state_49d4b4|31|4 0,0,1,0,0,0,0,0,0,0,0,0,0,0,0,1,
scooby_state_5ed0db|20|4 1,0,0,0,0,0,0,0,0,0,0,0,0,0,0,1,
scooby_state_47b80e|20|0 1,0,0,0,0,0,0,0,0,0,0,0,0,0,0,1,
scooby_state_451d40|51|2 1,0,0,0,0,0,0,0,0,0,0,0,0,0,0,1,
scooby_state_450fbd|53|-5 1,0,0,0,0,0,0,0,0,0,0,0,0,0,0,1,
scooby_state_5ed0db|57|28 1,0,0,0,0,0,0,0,0,0,0,0,0,0,0,1,
scooby_state_4510c5|3|1 1,0,0,0,0,0,0,0,0,0,0,0,0,0,0,1,
scooby_state_47c500|20|7 1,0,0,0,0,0,0,0,0,0,0,0,0,0,0,1,
scooby_state_4510bb|57|12 1,0,0,0,0,0,0,0,0,0,0,0,0,0,0,1,
scooby_state_43c8f0|35|-8 0,0,1,0,0,0,0,0,0,0,0,0,0,0,0,1,
scooby_state_5eb65b|54|-1 1,0,0,0,0,0,0,0,0,0,0,0,0,0,0,1,
scooby_state_5eb787|30|1 1,0,0,0,0,0,0,0,0,0,0,0,0,0,0,1,
scooby_state_43d9c0|39|7 1,0,0,0,0,0,0,0,0,0,0,0,0,0,0,1,
scooby_state_4517f1|46|-4 1,0,0,0,0,0,0,0,0,0,0,0,0,0,0,1,
scooby_state_4517fb|54|0 1,0,0,0,0,0,0,0,0,0,0,0,0,0,0,1,
scooby_state_5eb8dd|32|0 1,0,0,0,0,0,0,0,0,0,0,0,0,0,0,1,
scooby_state_5ed0db|39|15 1,0,0,0,0,0,0,0,0,0,0,0,0,0,0,1,
scooby_state_6600c1|3|-3 1,0,0,0,0,0,0,0,0,0,0,0,0,0,0,1,
scooby_state_451823|38|-3 0,0,0,0,0,0,1,0,0,0,0,0,0,0,0,1,
scooby_state_5ed065|28|0 1,0,0,0,0,0,0,0,0,0,0,0,0,0,0,1,
scooby_state_451826|30|-8 1,0,0,0,0,0,0,0,0,0,0,0,0,0,0,1,
scooby_state_451ca4|35|4 0,0,0,0,0,0,0,1,0,0,0,0,0,0,0,1,
scooby_state_451c06|59|1 1,0,0,0,0,0,0,0,0,0,0,0,0,0,0,1,
scooby_state_65fd49|52|0 1,0,0,0,0,0,0,0,0,0,0,0,0,0,0,1,
scooby_state_45236c|14|1 1,0,0,0,0,0,0,0,0,0,0,0,0,0,0,1,
scooby_state_47abe0|47|8 0,1,0,0,0,0,0,0,0,0,0,0,0,0,0,1,
scooby_state_5eb8dd|37|1 1,0,0,0,0,0,0,0,0,0,0,0,0,0,0,1,
scooby_state_4510bb|54|1 1,0,0,0,0,0,0,0,0,0,0,0,0,0,0,1,
scooby_state_58a3f0|15|-5 1,0,0,0,0,0,0,0,0,0,0,0,0,0,0,1,
scooby_state_451e46|28|-1 0,0,1,0,0,0,0,0,0,0,0,0,0,0,0,1,
scooby_state_451823|44|-3 1,0,0,0,0,0,0,0,0,0,0,0,0,0,0,1,
scooby_state_451010|38|3 1,0,0,0,0,0,0,0,0,0,0,0,0,0,0,1,
scooby_state_5ed065|45|2 1,0,0,0,0,0,0,0,0,0,0,0,0,0,0,1,
scooby_state_451086|15|1 1,0,0,0,0,0,0,0,0,0,0,0,0,0,0,1,
[...]
scooby_state_44fa86|42|-6 1,0,0,0,0,0,0,0,0,0,0,0,0,0,0,1,
scooby_state_44fc12|48|7 1,0,0,0,0,0,0,0,0,0,0,0,0,0,0,1,
scooby_state_43d9b3|38|1 1,0,0,0,0,0,0,0,0,0,0,0,0,0,0,1,
scooby_state_58a490|44|28 0,0,1,0,0,0,0,0,0,0,0,0,0,0,0,1,
scooby_state_65fc70|49|0 1,0,0,0,0,0,0,0,0,0,0,0,0,0,0,1,
scooby_state_45237b|27|6 1,0,0,0,0,0,0,0,0,0,0,0,0,0,0,1,
scooby_state_62de40|57|0 0,1,0,0,0,0,0,0,0,0,0,0,0,0,0,1,
scooby_state_44fa00|40|0 1,0,0,0,0,0,0,0,0,0,0,0,0,0,0,1,
scooby_state_45188a|32|12 1,0,0,0,0,0,0,0,0,0,0,0,0,0,0,1,
scooby_state_4516cb|37|6 1,0,0,0,0,0,0,0,0,0,0,0,0,0,0,1,
scooby_state_65dbc6|29|1 0,1,0,0,0,0,0,0,0,0,0,0,0,0,0,1,
scooby_state_43d803|32|-6 1,0,0,0,0,0,0,0,0,0,0,0,0,0,0,1,
scooby_state_47bf40|61|7 1,0,0,0,0,0,0,0,0,0,0,0,0,0,0,1,
scooby_state_451894|8|-53 0,0,0,0,0,0,1,0,0,0,0,0,0,0,0,1,
scooby_state_451834|12|-9 1,0,0,0,0,0,0,0,0,0,0,0,0,0,0,1,
scooby_state_451009|33|-5 1,0,0,0,0,0,0,0,0,0,0,0,0,0,0,1,
scooby_state_4a10c1|3|1 1,0,0,0,0,0,0,0,0,0,0,0,0,0,0,1,
scooby_state_43de60|57|21 1,0,0,0,0,0,0,0,0,0,0,0,0,0,0,1,
scooby_state_451900|36|33 0,1,0,0,0,0,0,0,0,0,0,0,0,0,0,1,
scooby_state_4ebf40|61|1 1,0,0,0,0,0,0,0,0,0,0,0,0,0,0,1,
scooby_state_5ed065|7|2 1,0,0,0,0,0,0,0,0,0,0,0,0,0,0,1,
scooby_state_45236c|23|4 1,0,0,0,0,0,0,0,0,0,0,0,0,0,0,1,
scooby_state_49d4b4|4|-6 0,0,0,0,1,0,0,0,0,0,0,0,0,0,0,1,
scooby_state_451823|24|-3 0,0,0,0,0,1,0,0,0,0,0,0,0,0,0,1,
scooby_state_47c62b|21|-14 1,0,0,0,0,0,0,0,0,0,0,0,0,0,0,1,
scooby_state_4516b1|23|-1 0,1,0,0,0,0,0,0,0,0,0,0,0,0,0,1,
scooby_state_45236c|33|1 1,0,0,0,0,0,0,0,0,0,0,0,0,0,0,1,
scooby_state_65fcc3|55|1 1,0,0,0,0,0,0,0,0,0,0,0,0,0,0,1,
scooby_state_62de82|58|1 0,0,0,1,0,0,0,0,0,0,0,0,0,0,0,1,
scooby_state_5ec389|27|0 0,0,0,0,0,0,1,0,0,0,0,0,0,0,0,1,
scooby_state_45236c|60|4 1,0,0,0,0,0,0,0,0,0,0,0,0,0,0,1,
scooby_state_5eb8dd|40|1 1,0,0,0,0,0,0,0,0,0,0,0,0,0,0,1,
scooby_state_660382|14|-3 1,0,0,0,0,0,0,0,0,0,0,0,0,0,0,1,
scooby_state_450f44|28|1 1,0,0,0,0,0,0,0,0,0,0,0,0,0,0,1,
scooby_state_44f9c2|39|1 1,0,0,0,0,0,0,0,0,0,0,0,0,0,0,1,
scooby_state_661b86|46|1 1,0,0,0,0,0,0,0,0,0,0,0,0,0,0,1,
scooby_state_5ed065|25|-22 1,0,0,0,0,0,0,0,0,0,0,0,0,0,0,1,
scooby_state_45236c|13|4 1,0,0,0,0,0,0,0,0,0,0,0,0,0,0,1,
scooby_state_45181a|15|0 1,0,0,0,0,0,0,0,0,0,0,0,0,0,0,1,
scooby_state_5b6280|10|0 1,0,0,0,0,0,0,0,0,0,0,0,0,0,0,1,
scooby_state_4516be|46|-2 1,0,0,0,0,0,0,0,0,0,0,0,0,0,0,1,
scooby_state_44f9b0|38|0 1,0,0,0,0,0,0,0,0,0,0,0,0,0,0,1,
scooby_state_450f44|57|1 1,0,0,0,0,0,0,0,0,0,0,0,0,0,0,1,
scooby_state_665745|29|1 1,0,0,0,0,0,0,0,0,0,0,0,0,0,0,1,
scooby_state_47b5f8|23|3 1,0,0,0,0,0,0,0,0,0,0,0,0,0,0,1,
scooby_state_47c306|35|7 1,0,0,0,0,0,0,0,0,0,0,0,0,0,0,1,
scooby_state_451b9d|46|-1 1,0,0,0,0,0,0,0,0,0,0,0,0,0,0,1,
scooby_state_47c62b|36|-1 0,1,0,0,0,0,0,0,0,0,0,0,0,0,0,1,
scooby_state_65f5e0|23|11 1,0,0,0,0,0,0,0,0,0,0,0,0,0,0,1,
scooby_state_47be70|62|0 1,0,0,0,0,0,0,0,0,0,0,0,0,0,0,1,
scooby_state_43d880|34|-12 1,0,0,0,0,0,0,0,0,0,0,0,0,0,0,1,
scooby_state_451023|37|1 1,0,0,0,0,0,0,0,0,0,0,0,0,0,0,1,
scooby_state_47c680|26|-7 1,0,0,0,0,0,0,0,0,0,0,0,0,0,0,1,
scooby_state_451e89|58|1 1,0,0,0,0,0,0,0,0,0,0,0,0,0,0,1,
scooby_state_451894|21|0 0,0,0,0,0,1,0,0,0,0,0,0,0,0,0,1,
scooby_state_43bb43|45|15 1,0,0,0,0,0,0,0,0,0,0,0,0,0,0,1,
scooby_state_5eb8dd|23|1 1,0,0,0,0,0,0,0,0,0,0,0,0,0,0,1,
scooby_state_45237b|30|9 1,0,0,0,0,0,0,0,0,0,0,0,0,0,0,1,
scooby_state_65fd49|28|0 1,0,0,0,0,0,0,0,0,0,0,0,0,0,0,1,
scooby_state_64564f|25|5 1,0,0,0,0,0,0,0,0,0,0,0,0,0,0,1,
scooby_state_451894|13|2 0,0,0,0,0,0,0,1,0,0,0,0,0,0,0,1,
scooby_state_47ad40|53|11 1,0,0,0,0,0,0,0,0,0,0,0,0,0,0,1,
scooby_state_660241|9|1 1,0,0,0,0,0,0,0,0,0,0,0,0,0,0,1,
scooby_state_5ed0db|21|16 1,0,0,0,0,0,0,0,0,0,0,0,0,0,0,1,
scooby_state_4517fb|36|9 0,0,1,0,0,0,0,0,0,0,0,0,0,0,0,1,
scooby_state_5ed065|36|4 1,0,0,0,0,0,0,0,0,0,0,0,0,0,0,1,
scooby_state_43e450|17|0 1,0,0,0,0,0,0,0,0,0,0,0,0,0,0,1,
scooby_state_451826|3|-8 1,0,0,0,0,0,0,0,0,0,0,0,0,0,0,1,
scooby_state_45236c|38|1 1,0,0,0,0,0,0,0,0,0,0,0,0,0,0,1,
scooby_state_451c92|54|1 1,0,0,0,0,0,0,0,0,0,0,0,0,0,0,1,
scooby_state_661bc0|47|1 1,0,0,0,0,0,0,0,0,0,0,0,0,0,0,1,
scooby_state_451882|46|0 1,0,0,0,0,0,0,0,0,0,0,0,0,0,0,1,
scooby_state_451b9d|11|-1 1,0,0,0,0,0,0,0,0,0,0,0,0,0,0,1,
scooby_state_5ed065|47|5 1,0,0,0,0,0,0,0,0,0,0,0,0,0,0,1,
scooby_state_451ca4|17|4 0,0,1,0,0,0,0,0,0,0,0,0,0,0,0,1,
scooby_state_4516e7|37|-1 1,0,0,0,0,0,0,0,0,0,0,0,0,0,0,1,
scooby_state_58a490|62|6 1,0,0,0,0,0,0,0,0,0,0,0,0,0,0,1,
scooby_state_47c600|24|5 1,0,0,0,0,0,0,0,0,0,0,0,0,0,0,1,
scooby_state_45181f|56|0 1,0,0,0,0,0,0,0,0,0,0,0,0,0,0,1,
scooby_state_45187e|40|2 1,0,0,0,0,0,0,0,0,0,0,0,0,0,0,1,
scooby_state_58a490|6|4 0,0,1,0,0,0,0,0,0,0,0,0,0,0,0,1,
scooby_state_4517f1|15|8 1,0,0,0,0,0,0,0,0,0,0,0,0,0,0,1,
scooby_state_64586d|0|-1 1,0,0,0,0,0,0,0,0,0,0,0,0,0,0,1,
scooby_state_5ed0db|19|5 1,0,0,0,0,0,0,0,0,0,0,0,0,0,0,1,
scooby_state_47be00|56|1 1,0,0,0,0,0,0,0,0,0,0,0,0,0,0,1,
scooby_state_451ca4|23|12 1,0,0,0,0,0,0,0,0,0,0,0,0,0,0,1,
scooby_state_4516be|51|-5 1,0,0,0,0,0,0,0,0,0,0,0,0,0,0,1,
scooby_state_58a4a4|9|0 0,0,0,0,1,0,0,0,0,0,0,0,0,0,0,1,
scooby_state_47bd41|53|42 1,0,0,0,0,0,0,0,0,0,0,0,0,0,0,1,
scooby_state_47c790|30|2 1,0,0,0,0,0,0,0,0,0,0,0,0,0,0,1,
scooby_state_450f44|53|2 1,0,0,0,0,0,0,0,0,0,0,0,0,0,0,1,
scooby_state_456590|22|3 1,0,0,0,0,0,0,0,0,0,0,0,0,0,0,1,
scooby_state_5ed065|63|23 1,0,0,0,0,0,0,0,0,0,0,0,0,0,0,1,
scooby_state_5eb8dd|18|1 1,0,0,0,0,0,0,0,0,0,0,0,0,0,0,1,
scooby_state_439c00|48|1 1,0,0,0,0,0,0,0,0,0,0,0,0,0,0,1,
scooby_state_451699|34|-5 1,0,0,0,0,0,0,0,0,0,0,0,0,0,0,1,
scooby_state_451894|56|1 0,1,0,0,0,0,0,0,0,0,0,0,0,0,0,1,
scooby_state_47bd82|54|-4 1,0,0,0,0,0,0,0,0,0,0,0,0,0,0,1,
scooby_state_65fd4d|30|1 1,0,0,0,0,0,0,0,0,0,0,0,0,0,0,1,
scooby_state_47b2c2|11|1 1,0,0,0,0,0,0,0,0,0,0,0,0,0,0,1,
scooby_state_65fd4d|20|1 1,0,0,0,0,0,0,0,0,0,0,0,0,0,0,1,
scooby_state_58a4a4|54|32 1,0,0,0,0,0,0,0,0,0,0,0,0,0,0,1,
scooby_state_47c10c|48|-13 1,0,0,0,0,0,0,0,0,0,0,0,0,0,0,1,
scooby_state_58a2c2|11|1 1,0,0,0,0,0,0,0,0,0,0,0,0,0,0,1,
scooby_state_47c10c|14|-3 1,0,0,0,0,0,0,0,0,0,0,0,0,0,0,1,
scooby_state_43ab48|45|1 1,0,0,0,0,0,0,0,0,0,0,0,0,0,0,1,
scooby_state_58a490|48|10 1,0,0,0,0,0,0,0,0,0,0,0,0,0,0,1,
scooby_state_64586d|44|-1 1,0,0,0,0,0,0,0,0,0,0,0,0,0,0,1,
scooby_state_661ba5|54|0 1,0,0,0,0,0,0,0,0,0,0,0,0,0,0,1,
scooby_state_451be6|9|2 1,0,0,0,0,0,0,0,0,0,0,0,0,0,0,1,
scooby_state_5eb758|29|3 1,0,0,0,0,0,0,0,0,0,0,0,0,0,0,1,
scooby_state_58a180|6|1 1,0,0,0,0,0,0,0,0,0,0,0,0,0,0,1,
scooby_state_5ed065|2|1 1,0,0,0,0,0,0,0,0,0,0,0,0,0,0,1,
scooby_state_47c10c|21|-31 1,0,0,0,0,0,0,0,0,0,0,0,0,0,0,1,
scooby_state_450f44|44|1 1,0,0,0,0,0,0,0,0,0,0,0,0,0,0,1,
scooby_state_49d4b4|28|-26 1,0,0,0,0,0,0,0,0,0,0,0,0,0,0,1,
scooby_state_451009|63|30 1,0,0,0,0,0,0,0,0,0,0,0,0,0,0,1,
scooby_state_5eb8dd|47|1 1,0,0,0,0,0,0,0,0,0,0,0,0,0,0,1,
scooby_state_451009|15|1 1,0,0,0,0,0,0,0,0,0,0,0,0,0,0,1,
scooby_state_451851|33|1 1,0,0,0,0,0,0,0,0,0,0,0,0,0,0,1,
scooby_state_58a490|54|4 1,0,0,0,0,0,0,0,0,0,0,0,0,0,0,1,
scooby_state_45236c|55|3 1,0,0,0,0,0,0,0,0,0,0,0,0,0,0,1,
scooby_state_58b7b4|20|0 1,0,0,0,0,0,0,0,0,0,0,0,0,0,0,1,
scooby_state_58b7d5|42|-10 1,0,0,0,0,0,0,0,0,0,0,0,0,0,0,1,
scooby_state_4516be|12|-7 1,0,0,0,0,0,0,0,0,0,0,0,0,0,0,1,
scooby_state_47be41|57|1 1,0,0,0,0,0,0,0,0,0,0,0,0,0,0,1,
scooby_state_45237b|13|2 1,0,0,0,0,0,0,0,0,0,0,0,0,0,0,1,
scooby_state_4517f1|20|-12 1,0,0,0,0,0,0,0,0,0,0,0,0,0,0,1,
scooby_state_451c92|55|1 1,0,0,0,0,0,0,0,0,0,0,0,0,0,0,1,
scooby_state_661802|32|-7 1,0,0,0,0,0,0,0,0,0,0,0,0,0,0,1,
scooby_state_47c614|25|-22 1,0,0,0,0,0,0,0,0,0,0,0,0,0,0,1,
scooby_state_45181f|47|-2 1,0,0,0,0,0,0,0,0,0,0,0,0,0,0,1,
scooby_state_58a4cb|39|7 1,0,0,0,0,0,0,0,0,0,0,0,0,0,0,1,
scooby_state_43b64e|25|12 1,0,0,0,0,0,0,0,0,0,0,0,0,0,0,1,
scooby_state_4516be|53|-1 1,0,0,0,0,0,0,0,0,0,0,0,0,0,0,1,
scooby_state_451894|6|4 0,0,0,0,0,1,0,0,0,0,0,0,0,0,0,1,
scooby_state_450fbd|54|0 1,0,0,0,0,0,0,0,0,0,0,0,0,0,0,1,
scooby_state_450f44|32|1 1,0,0,0,0,0,0,0,0,0,0,0,0,0,0,1,
scooby_state_661918|47|-1 1,0,0,0,0,0,0,0,0,0,0,0,0,0,0,1,
scooby_state_450fbd|31|-1 1,0,0,0,0,0,0,0,0,0,0,0,0,0,0,1,
scooby_state_58a1db|7|-2 1,0,0,0,0,0,0,0,0,0,0,0,0,0,0,1,
scooby_state_451823|48|-3 1,0,0,0,0,0,0,0,0,0,0,0,0,0,0,1,
scooby_state_451834|2|-6 1,0,0,0,0,0,0,0,0,0,0,0,0,0,0,1,
scooby_state_4a10a3|58|1 1,0,0,0,0,0,0,0,0,0,0,0,0,0,0,1,
scooby_state_451009|29|-4 1,0,0,0,0,0,0,0,0,0,0,0,0,0,0,1,
scooby_state_5ed0db|63|14 1,0,0,0,0,0,0,0,0,0,0,0,0,0,0,1,
scooby_state_58b7d5|4|0 1,0,0,0,0,0,0,0,0,0,0,0,0,0,0,1,
scooby_state_5ed065|46|5 1,0,0,0,0,0,0,0,0,0,0,0,0,0,0,1,
scooby_state_4516be|16|-15 1,0,0,0,0,0,0,0,0,0,0,0,0,0,0,1,
scooby_state_451be6|55|1 1,0,0,0,0,0,0,0,0,0,0,0,0,0,0,1,
scooby_state_43b780|30|17 0,0,1,0,0,0,0,0,0,0,0,0,0,0,0,1,
scooby_state_451b9d|44|-4 1,0,0,0,0,0,0,0,0,0,0,0,0,0,0,1,
scooby_state_5ed065|47|-1 1,0,0,0,0,0,0,0,0,0,0,0,0,0,0,1,
scooby_state_4517fb|56|1 0,0,1,0,0,0,0,0,0,0,0,0,0,0,0,1,
scooby_state_45188a|38|4 1,0,0,0,0,0,0,0,0,0,0,0,0,0,0,1,
scooby_state_451c92|57|1 1,0,0,0,0,0,0,0,0,0,0,0,0,0,0,1,
scooby_state_450fc1|63|1 1,0,0,0,0,0,0,0,0,0,0,0,0,0,0,1,
scooby_state_44f9cb|9|-1 1,0,0,0,0,0,0,0,0,0,0,0,0,0,0,1,
scooby_state_6619c3|39|1 1,0,0,0,0,0,0,0,0,0,0,0,0,0,0,1,
scooby_state_58a4a4|57|4 1,0,0,0,0,0,0,0,0,0,0,0,0,0,0,1,
scooby_state_451009|26|-1 1,0,0,0,0,0,0,0,0,0,0,0,0,0,0,1,
scooby_state_45237b|1|0 1,0,0,0,0,0,0,0,0,0,0,0,0,0,0,1,
scooby_state_4516be|51|-6 1,0,0,0,0,0,0,0,0,0,0,0,0,0,0,1,
scooby_state_4510bb|21|4 1,0,0,0,0,0,0,0,0,0,0,0,0,0,0,1,
scooby_state_451894|0|0 1,0,0,0,0,0,0,0,0,0,0,0,0,0,0,1,
scooby_state_47bbb8|11|3 1,0,0,0,0,0,0,0,0,0,0,0,0,0,0,1,
scooby_state_49d4b4|60|1 1,0,0,0,0,0,0,0,0,0,0,0,0,0,0,1,
scooby_state_47b752|29|5 1,0,0,0,0,0,0,0,0,0,0,0,0,0,0,1,
scooby_state_5ed065|40|3 1,0,0,0,0,0,0,0,0,0,0,0,0,0,0,1,
scooby_state_5ed065|10|1 1,0,0,0,0,0,0,0,0,0,0,0,0,0,0,1,
scooby_state_45187e|50|2 1,0,0,0,0,0,0,0,0,0,0,0,0,0,0,1,
scooby_state_4510bb|61|3 1,0,0,0,0,0,0,0,0,0,0,0,0,0,0,1,
scooby_state_451834|18|0 0,0,0,0,0,1,0,0,0,0,0,0,0,0,0,1,
scooby_state_4517fb|50|4 0,0,1,0,0,0,0,0,0,0,0,0,0,0,0,1,
scooby_state_47bbb8|45|3 0,1,0,0,0,0,0,0,0,0,0,0,0,0,0,1,
scooby_state_47b80e|61|0 0,0,0,1,0,0,0,0,0,0,0,0,0,0,0,1,
scooby_state_47bbb8|50|3 0,1,0,0,0,0,0,0,0,0,0,0,0,0,0,1,
scooby_state_5eb8dd|19|1 1,0,0,0,0,0,0,0,0,0,0,0,0,0,0,1,
scooby_state_660020|0|-7 1,0,0,0,0,0,0,0,0,0,0,0,0,0,0,1,
scooby_state_65fcaf|26|4 1,0,0,0,0,0,0,0,0,0,0,0,0,0,0,1,
scooby_state_45237b|22|5 1,0,0,0,0,0,0,0,0,0,0,0,0,0,0,1,
scooby_state_47c62b|35|-1 1,0,0,0,0,0,0,0,0,0,0,0,0,0,0,1,
scooby_state_451c00|48|1 1,0,0,0,0,0,0,0,0,0,0,0,0,0,0,1,
scooby_state_49d4b4|50|2 0,0,0,1,0,0,0,0,0,0,0,0,0,0,0,1,
scooby_state_451d40|10|1 1,0,0,0,0,0,0,0,0,0,0,0,0,0,0,1,
scooby_state_5ed0db|31|5 1,0,0,0,0,0,0,0,0,0,0,0,0,0,0,1,
scooby_state_47c331|34|24 1,0,0,0,0,0,0,0,0,0,0,0,0,0,0,1,
scooby_state_47b9c2|39|25 1,0,0,0,0,0,0,0,0,0,0,0,0,0,0,1,
scooby_state_4516be|21|-5 1,0,0,0,0,0,0,0,0,0,0,0,0,0,0,1,
scooby_state_451834|56|0 0,0,0,0,0,1,0,0,0,0,0,0,0,0,0,1,
scooby_state_47ab81|46|1 1,0,0,0,0,0,0,0,0,0,0,0,0,0,0,1,
scooby_state_65db42|45|-4 1,0,0,0,0,0,0,0,0,0,0,0,0,0,0,1,
scooby_state_451010|40|6 1,0,0,0,0,0,0,0,0,0,0,0,0,0,0,1,
scooby_state_5ed065|62|0 1,0,0,0,0,0,0,0,0,0,0,0,0,0,0,1,
scooby_state_65dbc6|4|0 1,0,0,0,0,0,0,0,0,0,0,0,0,0,0,1,
scooby_state_47c108|4|4 1,0,0,0,0,0,0,0,0,0,0,0,0,0,0,1,
scooby_state_5ed0db|35|5 1,0,0,0,0,0,0,0,0,0,0,0,0,0,0,1,
scooby_state_47ae01|56|-4 1,0,0,0,0,0,0,0,0,0,0,0,0,0,0,1,
scooby_state_451ca4|7|-2 1,0,0,0,0,0,0,0,0,0,0,0,0,0,0,1,
scooby_state_47aa48|41|1 1,0,0,0,0,0,0,0,0,0,0,0,0,0,0,1,
scooby_state_451834|42|4 0,0,1,0,0,0,0,0,0,0,0,0,0,0,0,1,
scooby_state_65dd83|54|1 1,0,0,0,0,0,0,0,0,0,0,0,0,0,0,1,
scooby_state_451c92|0|0 1,0,0,0,0,0,0,0,0,0,0,0,0,0,0,1,
scooby_state_4516be|39|-2 1,0,0,0,0,0,0,0,0,0,0,0,0,0,0,1,
scooby_state_451c06|51|1 1,0,0,0,0,0,0,0,0,0,0,0,0,0,0,1,
scooby_state_64545e|28|1 1,0,0,0,0,0,0,0,0,0,0,0,0,0,0,1,
scooby_state_451be6|50|2 1,0,0,0,0,0,0,0,0,0,0,0,0,0,0,1,
scooby_state_45187e|58|9 1,0,0,0,0,0,0,0,0,0,0,0,0,0,0,1,
scooby_state_58a4c1|35|-1 1,0,0,0,0,0,0,0,0,0,0,0,0,0,0,1,
scooby_state_47c62b|54|-1 1,0,0,0,0,0,0,0,0,0,0,0,0,0,0,1,
scooby_state_5ed065|8|-2 1,0,0,0,0,0,0,0,0,0,0,0,0,0,0,1,
scooby_state_451b9d|50|3 1,0,0,0,0,0,0,0,0,0,0,0,0,0,0,1,
scooby_state_451009|47|-16 1,0,0,0,0,0,0,0,0,0,0,0,0,0,0,1,
scooby_state_58c160|52|-1 1,0,0,0,0,0,0,0,0,0,0,0,0,0,0,1,
scooby_state_47a8c1|35|1 1,0,0,0,0,0,0,0,0,0,0,0,0,0,0,1,
scooby_state_451be6|57|-5 1,0,0,0,0,0,0,0,0,0,0,0,0,0,0,1,
scooby_state_45236c|23|3 0,1,0,0,0,0,0,0,0,0,0,0,0,0,0,1,
scooby_state_4517fb|63|30 0,0,1,0,0,0,0,0,0,0,0,0,0,0,0,1,
scooby_state_4516be|17|-4 1,0,0,0,0,0,0,0,0,0,0,0,0,0,0,1,
scooby_state_450f44|48|1 1,0,0,0,0,0,0,0,0,0,0,0,0,0,0,1,
scooby_state_645204|8|1 0,0,0,0,1,0,0,0,0,0,0,0,0,0,0,1,
scooby_state_5eb8dd|43|0 1,0,0,0,0,0,0,0,0,0,0,0,0,0,0,1,
scooby_state_5ed065|14|0 1,0,0,0,0,0,0,0,0,0,0,0,0,0,0,1,
scooby_state_47adc2|55|1 1,0,0,0,0,0,0,0,0,0,0,0,0,0,0,1,
scooby_state_439c00|48|0 1,0,0,0,0,0,0,0,0,0,0,0,0,0,0,1,
scooby_state_451894|44|2 0,0,0,0,0,0,1,0,0,0,0,0,0,0,0,1,

scooby_action_-3_deg_dist 0,7,0,0,0,0,0,0,0,0,0,0,0,0,0,0,
scooby_action_22_deg_dist 0,123,7,0,0,0,0,0,0,0,0,0,0,0,0,0,
scooby_action_12_deg_dist 0,107,7,0,1,0,0,0,0,0,0,0,0,0,0,0,
scooby_action_11_deg_dist 0,118,2,0,0,0,0,0,0,0,0,0,0,0,0,0,
scooby_action_-1_deg_dist 0,38,0,0,0,0,0,0,0,0,0,0,0,0,0,0,
scooby_action_23_deg_dist 0,87,1,0,0,0,0,0,0,0,0,0,0,0,0,0,
scooby_action_10_deg_dist 0,121,5,0,3,0,0,0,0,0,0,0,0,0,0,0,
scooby_action_5_deg_dist 0,90,0,0,0,0,0,0,0,0,0,0,0,0,0,0,
scooby_action_30_deg_dist 0,65,0,0,0,0,0,0,0,0,0,0,0,0,0,0,
scooby_action_4_deg_dist 0,371,48,0,42,0,10,0,0,0,0,0,0,0,0,0,
scooby_action_32_deg_dist 0,46,0,0,0,0,0,0,0,0,0,0,0,0,0,0,
scooby_action_3_deg_dist 0,277,17,0,0,0,0,0,0,0,0,0,0,0,0,0,
scooby_action_1_deg_dist 0,3094,541,0,1464,0,1371,0,0,0,0,0,0,0,0,0,

scooby_track_called 8063
scooby_track_same_address 3257
scooby_track_evict 4550

scooby_reward_demand_called 8063
scooby_reward_demand_pt_not_found 5079
scooby_reward_demand_pt_found 2984
scooby_reward_demand_pt_found_total 2984
scooby_reward_demand_has_reward 1118
scooby_reward_train_called 2477
scooby_reward_assign_reward_called 4665
scooby_reward_no_pref 0
scooby_reward_incorrect 2477
scooby_reward_correct_untimely 930
scooby_reward_correct_timely 936
scooby_reward_out_of_bounds 322
scooby_reward_tracker_hit 0

scooby_reward_none_low_bw 0
scooby_reward_none_high_bw 0
scooby_reward_incorrect_low_bw 2477
scooby_reward_incorrect_high_bw 0
scooby_reward_correct_untimely_low_bw 930
scooby_reward_correct_untimely_high_bw 0
scooby_reward_correct_timely_low_bw 936
scooby_reward_correct_timely_high_bw 0
scooby_reward_out_of_bounds_low_bw 322
scooby_reward_out_of_bounds_high_bw 0
scooby_reward_tracker_hit_low_bw 0
scooby_reward_tracker_hit_high_bw 0

scooby_reward_1 0,1819,906,798,52,0,
scooby_reward_3 0,132,4,20,12,0,
scooby_reward_4 0,221,18,82,36,0,
scooby_reward_5 0,55,0,2,13,0,
scooby_reward_10 0,68,1,9,24,0,
scooby_reward_11 0,48,0,4,31,0,
scooby_reward_12 0,51,0,8,37,0,
scooby_reward_22 0,37,0,9,43,0,
scooby_reward_23 0,24,0,3,25,0,
scooby_reward_30 0,11,0,0,29,0,
scooby_reward_32 0,6,0,0,20,0,
scooby_reward_-1 0,5,1,1,0,0,
scooby_reward_-3 0,0,0,0,0,0,
scooby_reward_-6 0,0,0,0,0,0,
scooby_reward_0 0,0,0,0,0,0,

scooby_train_called 4549
scooby_train_compute_reward 2477

scooby_register_fill_called 5549
scooby_register_fill_set 3296
scooby_register_fill_set_total 3296

scooby_register_prefetch_hit_called 4257
scooby_register_prefetch_hit_set 2630
scooby_register_prefetch_hit_set_total 2630

scooby_pref_issue_scooby 10612

learning_engine_featurewise.action.called 8063
learning_engine_featurewise.action.explore 14
learning_engine_featurewise.action.exploit 8049
learning_engine_featurewise.action.fallback 0
learning_engine_featurewise.action.dyn_fallback_saved_bw 0
learning_engine_featurewise.action.dyn_fallback_saved_bw_acc 268
learning_engine_featurewise.action.index_1_explored 1
learning_engine_featurewise.action.index_1_exploited 6469
learning_engine_featurewise.action.index_3_explored 2
learning_engine_featurewise.action.index_3_exploited 292
learning_engine_featurewise.action.index_4_explored 0
learning_engine_featurewise.action.index_4_exploited 471
learning_engine_featurewise.action.index_5_explored 2
learning_engine_featurewise.action.index_5_exploited 88
learning_engine_featurewise.action.index_10_explored 1
learning_engine_featurewise.action.index_10_exploited 128
learning_engine_featurewise.action.index_11_explored 0
learning_engine_featurewise.action.index_11_exploited 120
learning_engine_featurewise.action.index_12_explored 0
learning_engine_featurewise.action.index_12_exploited 115
learning_engine_featurewise.action.index_22_explored 0
learning_engine_featurewise.action.index_22_exploited 130
learning_engine_featurewise.action.index_23_explored 1
learning_engine_featurewise.action.index_23_exploited 87
learning_engine_featurewise.action.index_30_explored 1
learning_engine_featurewise.action.index_30_exploited 64
learning_engine_featurewise.action.index_32_explored 4
learning_engine_featurewise.action.index_32_exploited 42
learning_engine_featurewise.action.index_-1_explored 1
learning_engine_featurewise.action.index_-1_exploited 37
learning_engine_featurewise.action.index_-3_explored 1
learning_engine_featurewise.action.index_-3_exploited 6
learning_engine_featurewise.action.index_-6_explored 0
learning_engine_featurewise.action.index_-6_exploited 0
learning_engine_featurewise.action.index_0_explored 0
learning_engine_featurewise.action.index_0_exploited 0
learning_engine_featurewise.learn.called 4549
learning_engine_featurewise.learn.su_skip_PC 0
learning_engine_featurewise.learn.su_skip_PC_Delta 0

learning_engine_featurewise.q_value_histogram.bucket_0 0
learning_engine_featurewise.q_value_histogram.bucket_1 0
learning_engine_featurewise.q_value_histogram.bucket_2 0
learning_engine_featurewise.q_value_histogram.bucket_3 0
learning_engine_featurewise.q_value_histogram.bucket_4 7511
learning_engine_featurewise.q_value_histogram.bucket_5 538
learning_engine_featurewise.q_value_histogram.bucket_6 0
learning_engine_featurewise.q_value_histogram.bucket_7 0

learning_engine_featurewise.consensus.total 8049
learning_engine_featurewise.consensus.feature_align_PC 6268
learning_engine_featurewise.consensus.feature_align_PC_ratio 0.78
learning_engine_featurewise.consensus.feature_align_PC_Delta 6505
learning_engine_featurewise.consensus.feature_align_PC_Delta_ratio 0.81
learning_engine_featurewise.consensus.feature_align_all 4724
learning_engine_featurewise.consensus.feature_align_all_ratio 0.59

learning_engine_featurewise.feature_PC_min_weight 1000000.00000000
learning_engine_featurewise.feature_PC_max_weight 0.00000000
learning_engine_featurewise.feature_PC_Delta_min_weight 1000000.00000000
learning_engine_featurewise.feature_PC_Delta_max_weight 0.00000000
unique_pcs 653
unique_pages 302
unique_trigger_pcs 211
total_bitmaps_seen 0
unique_bitmaps_seen 0

scooby_bw_epochs 30495
scooby_bw_level_0 30109
scooby_bw_level_1 328
scooby_bw_level_2 54
scooby_bw_level_3 4

scooby_ipc_epochs 0
scooby_ipc_level_0 0
scooby_ipc_level_1 0
scooby_ipc_level_2 0
scooby_ipc_level_3 0

scooby_cache_acc_epochs 7605
scooby_cache_acc_level_0 6832
scooby_cache_acc_level_1 244
scooby_cache_acc_level_2 168
scooby_cache_acc_level_3 107
scooby_cache_acc_level_4 73
scooby_cache_acc_level_5 104
scooby_cache_acc_level_6 26
scooby_cache_acc_level_7 19
scooby_cache_acc_level_8 6
scooby_cache_acc_level_9 26

Channel_0_RQ_row_buffer_hit 1467
Channel_0_RQ_row_buffer_miss 1888
Channel_0_WQ_row_buffer_hit 0
Channel_0_WQ_row_buffer_miss 0
Channel_0_WQ_full 0
Channel_0_dbus_congested 1209

avg_congested_cycle 8

DRAM_bw_pochs 30495
DRAM_bw_level_0 30109
DRAM_bw_level_1 328
DRAM_bw_level_2 54
DRAM_bw_level_3 4
