Original cmd-> /cluster/home/vlnitu/CA-Lab4-24-vlnitu/Pythia/bin/perceptron-no-multi-no-ship-1core --warmup_instructions=1000000 --simulation_instructions=10000000 --l2c_prefetcher_types=scooby --config=/cluster/home/vlnitu/CA-Lab4-24-vlnitu/Pythia/config/pythia.ini --mail-type=BEGIN,END  -traces /cluster/home/vlnitu/CA-Lab4-24-vlnitu/Pythia/traces/410.bwaves-1963B.champsimtrace.xz
*************************************************
   ChampSim Multicore Out-of-Order Simulator
   Last compiled: Nov 19 2024 20:10:11
*************************************************
parsing config file: /cluster/home/vlnitu/CA-Lab4-24-vlnitu/Pythia/config/pythia.ini
unable to parse section: , name: mail-type, value: BEGIN,END

trace_0 /cluster/home/vlnitu/CA-Lab4-24-vlnitu/Pythia/traces/410.bwaves-1963B.champsimtrace.xz
adding L2C_PREFETCHER: Scooby
Initialize SHIP state
warmup_instructions 1000000
simulation_instructions 10000000
champsim_seed 277
measure_ipc 0
measure_ipc_epoch 1000
measure_dram_bw 1
measure_dram_bw_epoch 256
measure_cache_acc 1
measure_cache_acc_epoch 1024
l1d_perfect 0
l2c_perfect 0
llc_perfect 0
l1d_semi_perfect 0
l2c_semi_perfect 0
llc_semi_perfect 0
semi_perfect_cache_page_buffer_size 64

num_cpus 1
cpu_freq 4000
dram_io_freq 2400
page_size 4096
block_size 64
max_read_per_cycle 8
max_fill_per_cycle 1
dram_channels 1
log2_dram_channels 0
dram_ranks 1
dram_banks 8
dram_rows 65536
dram_columns 128
dram_row_size 8
dram_size 4096
dram_pages 1048576

fetch_width 6
decode_width 6
exec_width 4
lq_width 2
sq_width 2
retire_width 4
scheduler_size 128
branch_mispredict_penalty 20
rob_size 256
lq_size 72
sq_size 56
num_instr_destinations_sparc 4
num_instr_destinations 2
num_instr_sources 4

itlb_set 16
itlb_way 8
itlb_rq_size 16
itlb_wq_size 16
itlb_pq_size 0
itlb_mshr_size 8
itlb_latency 1

dtlb_set 16
dtlb_way 4
dtlb_rq_size 16
dtlb_wq_size 16
dtlb_pq_size 0
dtlb_mshr_size 8
dtlb_latency 1

stlb_set 128
stlb_way 12
stlb_rq_size 32
stlb_wq_size 32
stlb_pq_size 0
stlb_mshr_size 16
stlb_latency 8

l1i_size 32
l1i_set 64
l1i_way 8
l1i_rq_size 64
l1i_wq_size 64
l1i_pq_size 8
l1i_mshr_size 8
l1i_latency 1

l1d_size 32
l1d_set 64
l1d_way 8
l1d_rq_size 64
l1d_wq_size 64
l1d_pq_size 8
l1d_mshr_size 16
l1d_latency 4

l2c_size 256
l2c_set 512
l2c_way 8
l2c_rq_size 32
l2c_wq_size 32
l2c_pq_size 32
l2c_mshr_size 32
l2c_latency 10

llc_size 2048
llc_set 2048
llc_way 16
llc_rq_size 32
llc_wq_size 32
llc_pq_size 32
llc_mshr_size 64
llc_latency 20

dram_channel_width 8
dram_wq_size 64
dram_rq_size 64
tRP 15
tRCD 15
tCAS 12.5
dram_dbus_turn_around_time 30
dram_write_high_wm 56
dram_write_low_wm 48
min_dram_writes_per_switch 16
dram_mtps 2400
dram_dbus_return_time 13

scooby_alpha 0.0065088
scooby_gamma 0.556301
scooby_epsilon 0.00182284
scooby_state_num_bits 10
scooby_max_states 1024
scooby_seed 200
scooby_policy EGreedy
scooby_learning_type SARSA
scooby_actions 1,3,4,5,10,11,12,22,23,30,32,-1,-3,-6,0,
scooby_max_actions 15
scooby_pt_size 256
scooby_st_size 64
scooby_max_pcs 5
scooby_max_offsets 5
scooby_max_deltas 5
scooby_reward_none -4
scooby_reward_incorrect -8
scooby_reward_correct_untimely 12
scooby_reward_correct_timely 20
scooby_brain_zero_init 0
scooby_enable_reward_all 0
scooby_enable_track_multiple 0
scooby_enable_reward_out_of_bounds 1
scooby_reward_out_of_bounds -12
scooby_state_type 1
scooby_state_hash_type 11
scooby_access_debug 0
scooby_print_access_debug 0
scooby_print_access_debug_pc deadbeef
scooby_print_access_debug_pc_count 0
scooby_print_trace 0
scooby_enable_state_action_stats 1
scooby_enable_reward_tracker_hit 0
scooby_reward_tracker_hit -2
scooby_enable_featurewise_engine 1
scooby_pref_degree 1
scooby_enable_dyn_degree 1
scooby_max_to_avg_q_thresholds 0.5,1,2,
scooby_dyn_degrees 1,2,4,4,
scooby_multi_deg_select_type 2
scooby_last_pref_offset_conf_thresholds 1,3,8,
scooby_dyn_degrees_type2 1,2,4,6,
scooby_action_tracker_size 2
scooby_high_bw_thresh 4
scooby_enable_hbw_reward 1
scooby_reward_hbw_correct_timely 20
scooby_reward_hbw_correct_untimely 12
scooby_reward_hbw_incorrect -14
scooby_reward_hbw_none -2
scooby_reward_hbw_out_of_bounds -12
scooby_reward_hbw_tracker_hit -2
scooby_last_pref_offset_conf_thresholds_hbw 1,3,8,
scooby_dyn_degrees_type2_hbw 1,2,4,6,

le_enable_trace 0
le_trace_interval 0
le_trace_file_name 
le_trace_state 0
le_enable_score_plot 0
le_plot_file_name 
le_plot_actions 
le_enable_action_trace 0
le_action_trace_interval 0
le_action_trace_name 
le_enable_action_plot 0

le_featurewise_active_features PC, PC_Delta
le_featurewise_num_tilings 3,3,
le_featurewise_num_tiles 128,128,
le_featurewise_hash_types 2,2,
le_featurewise_enable_tiling_offset 1,1,
le_featurewise_max_q_thresh 0.5
le_featurewise_enable_action_fallback 1
le_featurewise_feature_weights 1,1,
le_featurewise_enable_dynamic_weight 0
le_featurewise_weight_gradient 0.001
le_featurewise_disable_adjust_weight_all_features_align 1
le_featurewise_selective_update 0
le_featurewise_pooling_type 2
le_featurewise_enable_dyn_action_fallback 1
le_featurewise_bw_acc_check_level 1
le_featurewise_acc_thresh 2
le_featurewise_enable_trace 0
le_featurewise_trace_feature_type 0
le_featurewise_trace_feature 
le_featurewise_trace_interval 0
le_featurewise_trace_record_count 0
le_featurewise_trace_file_name 
le_featurewise_enable_score_plot 0
le_featurewise_plot_actions 
le_featurewise_plot_file_name 


Heartbeat CPU  0 instructions:    1000002 cycles:     658255 heartbeat IPC: 1.51917 cumulative IPC: 1.51917 (Simulation time: 0 hr 0 min 2 sec) 

Warmup complete CPU  0 instructions:    1000002 cycles:     658255 (Simulation time: 0 hr 0 min 2 sec) 

Heartbeat CPU  0 instructions:    2000002 cycles:    1500665 heartbeat IPC: 1.18707 cumulative IPC: 1.18707 (Simulation time: 0 hr 0 min 4 sec) 
Heartbeat CPU  0 instructions:    3000000 cycles:    2344551 heartbeat IPC: 1.18499 cumulative IPC: 1.18603 (Simulation time: 0 hr 0 min 6 sec) 
Heartbeat CPU  0 instructions:    4000000 cycles:    3194106 heartbeat IPC: 1.17709 cumulative IPC: 1.18303 (Simulation time: 0 hr 0 min 8 sec) 
Heartbeat CPU  0 instructions:    5000002 cycles:    4038198 heartbeat IPC: 1.18471 cumulative IPC: 1.18345 (Simulation time: 0 hr 0 min 10 sec) 
Heartbeat CPU  0 instructions:    6000002 cycles:    4885195 heartbeat IPC: 1.18064 cumulative IPC: 1.18289 (Simulation time: 0 hr 0 min 12 sec) 
Heartbeat CPU  0 instructions:    7000000 cycles:    5725609 heartbeat IPC: 1.18989 cumulative IPC: 1.18405 (Simulation time: 0 hr 0 min 14 sec) 
Heartbeat CPU  0 instructions:    8000000 cycles:    6570643 heartbeat IPC: 1.18338 cumulative IPC: 1.18395 (Simulation time: 0 hr 0 min 16 sec) 
Heartbeat CPU  0 instructions:    9000002 cycles:    7420315 heartbeat IPC: 1.17693 cumulative IPC: 1.18307 (Simulation time: 0 hr 0 min 18 sec) 
Heartbeat CPU  0 instructions:   10000001 cycles:    8268055 heartbeat IPC: 1.17961 cumulative IPC: 1.18269 (Simulation time: 0 hr 0 min 19 sec) 
Heartbeat CPU  0 instructions:   11000001 cycles:    9114644 heartbeat IPC: 1.18121 cumulative IPC: 1.18254 (Simulation time: 0 hr 0 min 21 sec) 
Finished CPU 0 instructions: 10000000 cycles: 8456390 cumulative IPC: 1.18254 (Simulation time: 0 hr 0 min 21 sec) 

ChampSim completed all CPUs

[ROI Statistics]
Core_0_instructions 10000000
Core_0_cycles 8456390
Core_0_IPC 1.18254

Core_0_branch_prediction_accuracy 97.25603
Core_0_branch_MPKI 0.76500
Core_0_average_ROB_occupancy_at_mispredict 252.41765

Core_0_L1D_total_access 4946404
Core_0_L1D_total_hit 4744207
Core_0_L1D_total_miss 202197
Core_0_L1D_loads 4205344
Core_0_L1D_load_hit 4008306
Core_0_L1D_load_miss 197038
Core_0_L1D_RFOs 741060
Core_0_L1D_RFO_hit 735901
Core_0_L1D_RFO_miss 5159
Core_0_L1D_prefetches 0
Core_0_L1D_prefetch_hit 0
Core_0_L1D_prefetch_miss 0
Core_0_L1D_writebacks 0
Core_0_L1D_writeback_hit 0
Core_0_L1D_writeback_miss 0
Core_0_L1D_prefetch_requested 0
Core_0_L1D_prefetch_dropped 0
Core_0_L1D_prefetch_issued 0
Core_0_L1D_prefetch_filled 0
Core_0_L1D_prefetch_useful 0
Core_0_L1D_prefetch_useless 0
Core_0_L1D_prefetch_late 0
Core_0_L1D_average_miss_latency 34.14105

Core_0_L1D_rq_access 5276201
Core_0_L1D_rq_forward 0
Core_0_L1D_rq_merged 1059581
Core_0_L1D_rq_to_cache 4216620
Core_0_L1D_rq_full 0

Core_0_L1D_wq_access 748751
Core_0_L1D_wq_forward 0
Core_0_L1D_wq_merged 0
Core_0_L1D_wq_to_cache 748751
Core_0_L1D_wq_full 0

Core_0_L1D_pq_access 0
Core_0_L1D_pq_forward 0
Core_0_L1D_pq_merged 0
Core_0_L1D_pq_to_cache 0
Core_0_L1D_pq_full 0

Core_0_L1D_acc_epochs 8629
Core_0_L1D_acc_level_0 8629
Core_0_L1D_acc_level_1 0
Core_0_L1D_acc_level_2 0
Core_0_L1D_acc_level_3 0
Core_0_L1D_acc_level_4 0
Core_0_L1D_acc_level_5 0
Core_0_L1D_acc_level_6 0
Core_0_L1D_acc_level_7 0
Core_0_L1D_acc_level_8 0
Core_0_L1D_acc_level_9 0

Core_0_L1I_total_access 2291612
Core_0_L1I_total_hit 2291603
Core_0_L1I_total_miss 9
Core_0_L1I_loads 2291612
Core_0_L1I_load_hit 2291603
Core_0_L1I_load_miss 9
Core_0_L1I_RFOs 0
Core_0_L1I_RFO_hit 0
Core_0_L1I_RFO_miss 0
Core_0_L1I_prefetches 0
Core_0_L1I_prefetch_hit 0
Core_0_L1I_prefetch_miss 0
Core_0_L1I_writebacks 0
Core_0_L1I_writeback_hit 0
Core_0_L1I_writeback_miss 0
Core_0_L1I_prefetch_requested 0
Core_0_L1I_prefetch_dropped 0
Core_0_L1I_prefetch_issued 0
Core_0_L1I_prefetch_filled 0
Core_0_L1I_prefetch_useful 0
Core_0_L1I_prefetch_useless 0
Core_0_L1I_prefetch_late 0
Core_0_L1I_average_miss_latency 192.11111

Core_0_L1I_rq_access 9999997
Core_0_L1I_rq_forward 0
Core_0_L1I_rq_merged 7708381
Core_0_L1I_rq_to_cache 2291616
Core_0_L1I_rq_full 0

Core_0_L1I_wq_access 0
Core_0_L1I_wq_forward 0
Core_0_L1I_wq_merged 0
Core_0_L1I_wq_to_cache 0
Core_0_L1I_wq_full 0

Core_0_L1I_pq_access 0
Core_0_L1I_pq_forward 0
Core_0_L1I_pq_merged 0
Core_0_L1I_pq_to_cache 0
Core_0_L1I_pq_full 0

Core_0_L1I_acc_epochs 8629
Core_0_L1I_acc_level_0 8629
Core_0_L1I_acc_level_1 0
Core_0_L1I_acc_level_2 0
Core_0_L1I_acc_level_3 0
Core_0_L1I_acc_level_4 0
Core_0_L1I_acc_level_5 0
Core_0_L1I_acc_level_6 0
Core_0_L1I_acc_level_7 0
Core_0_L1I_acc_level_8 0
Core_0_L1I_acc_level_9 0

Core_0_L2C_total_access 883653
Core_0_L2C_total_hit 700097
Core_0_L2C_total_miss 183556
Core_0_L2C_loads 196962
Core_0_L2C_load_hit 186870
Core_0_L2C_load_miss 10092
Core_0_L2C_RFOs 5114
Core_0_L2C_RFO_hit 409
Core_0_L2C_RFO_miss 4705
Core_0_L2C_prefetches 675521
Core_0_L2C_prefetch_hit 506783
Core_0_L2C_prefetch_miss 168738
Core_0_L2C_writebacks 6056
Core_0_L2C_writeback_hit 6035
Core_0_L2C_writeback_miss 21
Core_0_L2C_prefetch_requested 1073331
Core_0_L2C_prefetch_dropped 180482
Core_0_L2C_prefetch_issued 892849
Core_0_L2C_prefetch_filled 186458
Core_0_L2C_prefetch_useful 186422
Core_0_L2C_prefetch_useless 8
Core_0_L2C_prefetch_late 6538
Core_0_L2C_average_miss_latency 289.15858

Core_0_L2C_rq_access 202206
Core_0_L2C_rq_forward 0
Core_0_L2C_rq_merged 0
Core_0_L2C_rq_to_cache 202076
Core_0_L2C_rq_full 0

Core_0_L2C_wq_access 6056
Core_0_L2C_wq_forward 130
Core_0_L2C_wq_merged 0
Core_0_L2C_wq_to_cache 6056
Core_0_L2C_wq_full 0

Core_0_L2C_pq_access 892849
Core_0_L2C_pq_forward 0
Core_0_L2C_pq_merged 55067
Core_0_L2C_pq_to_cache 837782
Core_0_L2C_pq_full 0

Core_0_L2C_acc_epochs 8629
Core_0_L2C_acc_level_0 1
Core_0_L2C_acc_level_1 0
Core_0_L2C_acc_level_2 5
Core_0_L2C_acc_level_3 13
Core_0_L2C_acc_level_4 19
Core_0_L2C_acc_level_5 56
Core_0_L2C_acc_level_6 117
Core_0_L2C_acc_level_7 248
Core_0_L2C_acc_level_8 732
Core_0_L2C_acc_level_9 7438

Core_0_LLC_total_access 188246
Core_0_LLC_total_hit 2120
Core_0_LLC_total_miss 186126
Core_0_LLC_loads 3557
Core_0_LLC_load_hit 67
Core_0_LLC_load_miss 3490
Core_0_LLC_RFOs 4705
Core_0_LLC_RFO_hit 0
Core_0_LLC_RFO_miss 4705
Core_0_LLC_prefetches 175274
Core_0_LLC_prefetch_hit 1537
Core_0_LLC_prefetch_miss 173737
Core_0_LLC_writebacks 4710
Core_0_LLC_writeback_hit 516
Core_0_LLC_writeback_miss 4194
Core_0_LLC_prefetch_requested 0
Core_0_LLC_prefetch_dropped 0
Core_0_LLC_prefetch_issued 0
Core_0_LLC_prefetch_filled 191460
Core_0_LLC_prefetch_useful 25
Core_0_LLC_prefetch_useless 164104
Core_0_LLC_prefetch_late 0
Core_0_LLC_average_miss_latency 258.14497

Core_0_LLC_rq_access 8262
Core_0_LLC_rq_forward 0
Core_0_LLC_rq_merged 0
Core_0_LLC_rq_to_cache 8262
Core_0_LLC_rq_full 0

Core_0_LLC_wq_access 4710
Core_0_LLC_wq_forward 0
Core_0_LLC_wq_merged 0
Core_0_LLC_wq_to_cache 4710
Core_0_LLC_wq_full 0

Core_0_LLC_pq_access 193015
Core_0_LLC_pq_forward 0
Core_0_LLC_pq_merged 0
Core_0_LLC_pq_to_cache 193015
Core_0_LLC_pq_full 0

Core_0_LLC_acc_epochs 8902
Core_0_LLC_acc_level_0 8900
Core_0_LLC_acc_level_1 1
Core_0_LLC_acc_level_2 1
Core_0_LLC_acc_level_3 0
Core_0_LLC_acc_level_4 0
Core_0_LLC_acc_level_5 0
Core_0_LLC_acc_level_6 0
Core_0_LLC_acc_level_7 0
Core_0_LLC_acc_level_8 0
Core_0_LLC_acc_level_9 0

Core_0_major_page_fault 0
Core_0_minor_page_fault 3085

scooby_st_lookup 218197
scooby_st_hit 215110
scooby_st_evict 3023
scooby_st_insert 3087
scooby_st_streaming 0

scooby_predict_called 218197
scooby_predict_out_of_bounds 4474
scooby_predict_action_1 213414
scooby_predict_issue_action_1 204031
scooby_predict_hit_action_1 9383
scooby_predict_out_of_bounds_action_1 4252
scooby_predict_action_3 31
scooby_predict_issue_action_3 31
scooby_predict_hit_action_3 0
scooby_predict_out_of_bounds_action_3 6
scooby_predict_action_4 22
scooby_predict_issue_action_4 22
scooby_predict_hit_action_4 0
scooby_predict_out_of_bounds_action_4 3
scooby_predict_action_5 23
scooby_predict_issue_action_5 23
scooby_predict_hit_action_5 0
scooby_predict_out_of_bounds_action_5 9
scooby_predict_action_10 31
scooby_predict_issue_action_10 31
scooby_predict_hit_action_10 0
scooby_predict_out_of_bounds_action_10 10
scooby_predict_action_11 23
scooby_predict_issue_action_11 23
scooby_predict_hit_action_11 0
scooby_predict_out_of_bounds_action_11 127
scooby_predict_action_12 18
scooby_predict_issue_action_12 18
scooby_predict_hit_action_12 0
scooby_predict_out_of_bounds_action_12 7
scooby_predict_action_22 20
scooby_predict_issue_action_22 20
scooby_predict_hit_action_22 0
scooby_predict_out_of_bounds_action_22 14
scooby_predict_action_23 17
scooby_predict_issue_action_23 17
scooby_predict_hit_action_23 0
scooby_predict_out_of_bounds_action_23 10
scooby_predict_action_30 12
scooby_predict_issue_action_30 12
scooby_predict_hit_action_30 0
scooby_predict_out_of_bounds_action_30 19
scooby_predict_action_32 9
scooby_predict_issue_action_32 9
scooby_predict_hit_action_32 0
scooby_predict_out_of_bounds_action_32 13
scooby_predict_action_-1 27
scooby_predict_issue_action_-1 0
scooby_predict_hit_action_-1 27
scooby_predict_out_of_bounds_action_-1 1
scooby_predict_action_-3 23
scooby_predict_issue_action_-3 0
scooby_predict_hit_action_-3 23
scooby_predict_out_of_bounds_action_-3 0
scooby_predict_action_-6 21
scooby_predict_issue_action_-6 5
scooby_predict_hit_action_-6 16
scooby_predict_out_of_bounds_action_-6 3
scooby_predict_action_0 32
scooby_predict_issue_action_0 0
scooby_predict_hit_action_0 0
scooby_predict_out_of_bounds_action_0 0
scooby_predict_multi_deg_called 194772
scooby_predict_predicted 1073331
scooby_predict_multi_deg 869089
scooby_predict_multi_deg_2 191466
scooby_predict_multi_deg_3 181999
scooby_predict_multi_deg_4 178708
scooby_predict_multi_deg_5 160070
scooby_predict_multi_deg_6 156846
scooby_predict_multi_deg_7 0
scooby_predict_multi_deg_8 0
scooby_predict_multi_deg_9 0
scooby_predict_multi_deg_10 0
scooby_predict_multi_deg_11 0
scooby_predict_multi_deg_12 0
scooby_predict_multi_deg_13 0
scooby_predict_multi_deg_14 0
scooby_predict_multi_deg_15 0
scooby_predict_multi_deg_16 0

scooby_selected_deg_1 9470
scooby_selected_deg_2 6169
scooby_selected_deg_3 0
scooby_selected_deg_4 15422
scooby_selected_deg_5 0
scooby_selected_deg_6 173181
scooby_selected_deg_7 0
scooby_selected_deg_8 0
scooby_selected_deg_9 0
scooby_selected_deg_10 0
scooby_selected_deg_11 0
scooby_selected_deg_12 0
scooby_selected_deg_13 0
scooby_selected_deg_14 0
scooby_selected_deg_15 0
scooby_selected_deg_16 0

scooby_state_400dc0|51|1 514,0,0,0,0,0,0,0,0,0,0,0,0,0,0,514,
scooby_state_400dc0|56|1 462,0,0,0,0,0,0,0,0,0,0,0,0,0,0,462,
scooby_state_400e20|51|1 458,0,0,0,0,0,0,0,0,0,0,0,0,0,0,458,
scooby_state_400dda|51|1 453,0,0,0,0,0,0,0,0,0,0,0,0,0,0,453,
scooby_state_400e51|51|1 435,0,1,0,0,0,0,1,0,0,0,0,0,0,0,437,
scooby_state_400e38|51|1 433,0,0,0,0,0,0,0,0,0,0,0,0,0,0,433,
scooby_state_400e09|51|1 428,0,0,0,0,0,1,0,0,0,0,0,0,0,0,429,
scooby_state_400df3|51|1 427,0,0,0,0,0,0,0,0,0,0,0,0,0,1,428,
scooby_state_400e20|56|1 422,0,0,0,0,0,0,0,0,0,0,0,0,0,0,422,
scooby_state_400e20|63|1 419,0,0,0,0,0,0,1,0,0,0,0,0,0,0,420,
scooby_state_400e51|56|1 417,0,0,0,0,0,0,0,0,0,0,0,0,0,0,417,
scooby_state_400dda|56|1 417,0,0,0,0,0,0,0,0,0,0,0,0,0,0,417,
scooby_state_400dda|63|1 414,0,0,0,0,0,0,0,0,0,0,0,0,0,0,414,
scooby_state_400dc0|63|1 411,0,0,0,0,0,0,0,0,0,0,0,0,0,1,412,
scooby_state_400df3|63|1 410,1,0,0,1,0,0,0,0,0,0,0,0,0,0,412,
scooby_state_400df3|56|1 410,0,0,0,0,0,0,0,0,0,0,0,0,0,0,410,
scooby_state_400e09|63|1 410,0,0,0,0,0,0,0,0,0,0,0,0,0,0,410,
scooby_state_400e09|56|1 409,0,0,0,0,0,0,0,0,0,0,0,0,0,0,409,
scooby_state_400e38|61|1 408,0,0,0,0,0,0,0,0,0,0,0,0,0,0,408,
scooby_state_400e51|61|1 406,0,0,0,0,1,0,0,0,0,0,0,0,0,0,407,
scooby_state_400e20|61|1 406,0,0,0,0,0,0,1,0,0,0,0,0,0,0,407,
scooby_state_400dc0|0|0 406,0,0,0,0,0,0,0,0,0,0,0,0,0,0,406,
scooby_state_400dc0|61|1 406,0,0,0,0,0,0,0,0,0,0,0,0,0,0,406,
scooby_state_400dda|61|1 406,0,0,0,0,0,0,0,0,0,0,0,0,0,0,406,
scooby_state_400dda|0|0 404,0,0,0,0,0,0,1,0,1,0,0,0,0,0,406,
scooby_state_400e38|56|1 405,0,0,0,0,0,0,0,0,0,0,1,0,0,0,406,
scooby_state_400e09|45|1 404,1,0,0,0,0,0,0,0,0,0,0,0,0,0,405,
scooby_state_400df3|44|1 404,0,0,0,1,0,0,0,0,0,0,0,0,0,0,405,
scooby_state_400dda|40|1 403,1,0,0,1,0,0,0,0,0,0,0,0,0,0,405,
scooby_state_400e51|63|1 405,0,0,0,0,0,0,0,0,0,0,0,0,0,0,405,
scooby_state_400e38|50|1 404,0,1,0,0,0,0,0,0,0,0,0,0,0,0,405,
scooby_state_400e09|24|1 405,0,0,0,0,0,0,0,0,0,0,0,0,0,0,405,
scooby_state_400e20|46|1 404,0,0,0,0,0,0,0,0,1,0,0,0,0,0,405,
scooby_state_400dc0|46|1 404,1,0,0,0,0,0,0,0,0,0,0,0,0,0,405,
scooby_state_400dc0|44|1 403,0,0,0,0,0,0,1,0,0,0,0,1,0,0,405,
scooby_state_400e51|37|1 405,0,0,0,0,0,0,0,0,0,0,0,0,0,0,405,
scooby_state_400dc0|48|1 404,0,0,0,0,0,0,0,1,0,0,0,0,0,0,405,
scooby_state_400e51|0|0 404,0,0,0,1,0,0,0,0,0,0,0,0,0,0,405,
scooby_state_400e20|48|1 404,0,0,0,0,0,0,0,0,0,0,1,0,0,0,405,
scooby_state_400dda|37|1 404,0,0,0,0,0,0,0,1,0,0,0,0,0,0,405,
scooby_state_400dda|31|1 404,0,0,0,1,0,0,0,0,0,0,0,0,0,0,405,
scooby_state_400e51|24|1 405,0,0,0,0,0,0,0,0,0,0,0,0,0,0,405,
scooby_state_400dda|45|1 404,0,0,0,0,0,0,0,1,0,0,0,0,0,0,405,
scooby_state_400e09|44|1 404,0,0,0,0,0,0,0,0,1,0,0,0,0,0,405,
scooby_state_400e20|27|1 405,0,0,0,0,0,0,0,0,0,0,0,0,0,0,405,
scooby_state_400e38|34|1 404,0,0,0,0,1,0,0,0,0,0,0,0,0,0,405,
scooby_state_400e38|27|1 405,0,0,0,0,0,0,0,0,0,0,0,0,0,0,405,
scooby_state_400dda|28|1 405,0,0,0,0,0,0,0,0,0,0,0,0,0,0,405,
scooby_state_400dc0|40|1 404,0,0,0,0,0,0,0,1,0,0,0,0,0,0,405,
scooby_state_400df3|23|1 405,0,0,0,0,0,0,0,0,0,0,0,0,0,0,405,
scooby_state_400e09|49|1 405,0,0,0,0,0,0,0,0,0,0,0,0,0,0,405,
scooby_state_400e51|46|1 405,0,0,0,0,0,0,0,0,0,0,0,0,0,0,405,
scooby_state_400e51|28|1 403,0,0,0,0,0,1,1,0,0,0,0,0,0,0,405,
scooby_state_400e38|23|1 403,0,0,0,0,1,0,0,0,1,0,0,0,0,0,405,
scooby_state_400e09|50|1 405,0,0,0,0,0,0,0,0,0,0,0,0,0,0,405,
scooby_state_400df3|31|1 405,0,0,0,0,0,0,0,0,0,0,0,0,0,0,405,
scooby_state_400df3|61|1 403,0,0,0,0,0,0,0,0,1,0,0,0,1,0,405,
scooby_state_400dda|23|1 405,0,0,0,0,0,0,0,0,0,0,0,0,0,0,405,
scooby_state_400e38|47|1 402,0,0,0,0,0,2,0,0,0,0,0,0,1,0,405,
scooby_state_400dda|48|1 404,0,0,0,0,0,0,0,0,0,0,0,1,0,0,405,
scooby_state_400dda|30|1 404,1,0,0,0,0,0,0,0,0,0,0,0,0,0,405,
scooby_state_400e51|23|1 405,0,0,0,0,0,0,0,0,0,0,0,0,0,0,405,
scooby_state_400e09|28|1 405,0,0,0,0,0,0,0,0,0,0,0,0,0,0,405,
scooby_state_400dda|29|1 405,0,0,0,0,0,0,0,0,0,0,0,0,0,0,405,
scooby_state_400dda|42|1 405,0,0,0,0,0,0,0,0,0,0,0,0,0,0,405,
scooby_state_400e09|61|1 405,0,0,0,0,0,0,0,0,0,0,0,0,0,0,405,
scooby_state_400e20|29|1 403,0,0,0,0,0,1,0,0,0,0,1,0,0,0,405,
scooby_state_400df3|48|1 405,0,0,0,0,0,0,0,0,0,0,0,0,0,0,405,
scooby_state_400e09|23|1 405,0,0,0,0,0,0,0,0,0,0,0,0,0,0,405,
scooby_state_400e20|31|1 403,0,0,0,0,1,0,0,0,0,0,1,0,0,0,405,
scooby_state_400dda|34|1 404,0,0,0,0,0,0,0,0,0,0,0,0,1,0,405,
scooby_state_400dc0|38|1 403,0,0,0,0,1,0,0,0,0,0,1,0,0,0,405,
scooby_state_400e38|33|1 405,0,0,0,0,0,0,0,0,0,0,0,0,0,0,405,
scooby_state_400dc0|34|1 403,1,1,0,0,0,0,0,0,0,0,0,0,0,0,405,
scooby_state_400dda|38|1 405,0,0,0,0,0,0,0,0,0,0,0,0,0,0,405,
scooby_state_400e09|37|1 405,0,0,0,0,0,0,0,0,0,0,0,0,0,0,405,
scooby_state_400df3|37|1 402,0,0,0,0,0,0,0,0,0,0,2,0,0,1,405,
scooby_state_400e38|42|1 404,0,0,1,0,0,0,0,0,0,0,0,0,0,0,405,
scooby_state_400e51|36|1 404,0,0,0,0,0,0,0,0,0,1,0,0,0,0,405,
scooby_state_400df3|38|1 405,0,0,0,0,0,0,0,0,0,0,0,0,0,0,405,
scooby_state_400e20|37|1 403,0,0,0,0,1,0,0,1,0,0,0,0,0,0,405,
scooby_state_400dc0|37|1 405,0,0,0,0,0,0,0,0,0,0,0,0,0,0,405,
scooby_state_400e38|37|1 402,1,0,0,0,0,0,0,0,0,0,1,0,0,1,405,
scooby_state_400e38|48|1 405,0,0,0,0,0,0,0,0,0,0,0,0,0,0,405,
scooby_state_400dda|36|1 404,0,0,0,0,0,0,0,0,0,0,0,1,0,0,405,
scooby_state_400e09|33|1 405,0,0,0,0,0,0,0,0,0,0,0,0,0,0,405,
scooby_state_400e38|45|1 404,0,0,0,0,0,0,0,0,0,0,0,1,0,0,405,
scooby_state_400e38|36|1 405,0,0,0,0,0,0,0,0,0,0,0,0,0,0,405,
scooby_state_400e09|34|1 405,0,0,0,0,0,0,0,0,0,0,0,0,0,0,405,
scooby_state_400df3|35|1 404,1,0,0,0,0,0,0,0,0,0,0,0,0,0,405,
scooby_state_400e51|39|1 405,0,0,0,0,0,0,0,0,0,0,0,0,0,0,405,
scooby_state_400e20|34|1 404,0,0,0,0,0,0,0,0,0,0,0,0,0,1,405,
scooby_state_400e09|35|1 405,0,0,0,0,0,0,0,0,0,0,0,0,0,0,405,
scooby_state_400dc0|35|1 404,0,0,0,0,0,0,0,0,0,0,0,0,1,0,405,
scooby_state_400dda|27|1 405,0,0,0,0,0,0,0,0,0,0,0,0,0,0,405,
scooby_state_400e09|48|1 404,0,0,0,1,0,0,0,0,0,0,0,0,0,0,405,
scooby_state_400e20|35|1 405,0,0,0,0,0,0,0,0,0,0,0,0,0,0,405,
scooby_state_400e38|41|1 405,0,0,0,0,0,0,0,0,0,0,0,0,0,0,405,
scooby_state_400dda|35|1 405,0,0,0,0,0,0,0,0,0,0,0,0,0,0,405,
scooby_state_400df3|30|1 404,0,0,1,0,0,0,0,0,0,0,0,0,0,0,405,
scooby_state_400e38|31|1 405,0,0,0,0,0,0,0,0,0,0,0,0,0,0,405,
scooby_state_400e20|43|1 404,0,0,0,0,0,1,0,0,0,0,0,0,0,0,405,
scooby_state_400e51|45|1 403,0,0,0,0,0,0,0,1,0,0,1,0,0,0,405,
scooby_state_400e09|42|1 403,0,0,0,0,1,0,0,1,0,0,0,0,0,0,405,
scooby_state_400e09|41|1 405,0,0,0,0,0,0,0,0,0,0,0,0,0,0,405,
scooby_state_400e51|42|1 403,0,0,0,0,0,1,0,0,1,0,0,0,0,0,405,
scooby_state_400df3|41|1 404,0,0,0,0,0,1,0,0,0,0,0,0,0,0,405,
scooby_state_400e20|45|1 405,0,0,0,0,0,0,0,0,0,0,0,0,0,0,405,
scooby_state_400df3|49|1 405,0,0,0,0,0,0,0,0,0,0,0,0,0,0,405,
scooby_state_400dda|41|1 405,0,0,0,0,0,0,0,0,0,0,0,0,0,0,405,
scooby_state_400e51|47|1 404,1,0,0,0,0,0,0,0,0,0,0,0,0,0,405,
scooby_state_400e38|40|1 405,0,0,0,0,0,0,0,0,0,0,0,0,0,0,405,
scooby_state_400e09|40|1 405,0,0,0,0,0,0,0,0,0,0,0,0,0,0,405,
scooby_state_400e09|36|1 405,0,0,0,0,0,0,0,0,0,0,0,0,0,0,405,
scooby_state_400e20|28|1 405,0,0,0,0,0,0,0,0,0,0,0,0,0,0,405,
scooby_state_400e51|50|1 405,0,0,0,0,0,0,0,0,0,0,0,0,0,0,405,
scooby_state_400e20|47|1 405,0,0,0,0,0,0,0,0,0,0,0,0,0,0,405,
scooby_state_400e38|39|1 405,0,0,0,0,0,0,0,0,0,0,0,0,0,0,405,
scooby_state_400e38|38|1 405,0,0,0,0,0,0,0,0,0,0,0,0,0,0,405,
scooby_state_400e38|49|1 403,0,0,1,0,0,1,0,0,0,0,0,0,0,0,405,
scooby_state_400e20|38|1 405,0,0,0,0,0,0,0,0,0,0,0,0,0,0,405,
scooby_state_400df3|33|1 404,1,0,0,0,0,0,0,0,0,0,0,0,0,0,405,
scooby_state_400e51|38|1 403,0,0,0,0,0,0,0,0,0,1,0,0,1,0,405,
scooby_state_400df3|45|1 405,0,0,0,0,0,0,0,0,0,0,0,0,0,0,405,
scooby_state_400dc0|41|1 405,0,0,0,0,0,0,0,0,0,0,0,0,0,0,405,
scooby_state_400e38|46|1 405,0,0,0,0,0,0,0,0,0,0,0,0,0,0,405,
scooby_state_400e51|33|1 404,0,0,0,0,0,0,0,0,1,0,0,0,0,0,405,
scooby_state_400e51|48|1 404,0,0,0,0,0,0,0,0,1,0,0,0,0,0,405,
scooby_state_400dc0|45|1 405,0,0,0,0,0,0,0,0,0,0,0,0,0,0,405,
scooby_state_400dc0|49|1 404,0,0,0,0,0,0,0,0,1,0,0,0,0,0,405,
scooby_state_400dda|32|1 404,0,0,0,0,0,0,0,0,0,1,0,0,0,0,405,
scooby_state_400df3|50|1 402,0,0,0,0,0,0,1,1,0,0,0,0,0,1,405,
scooby_state_400dc0|43|1 405,0,0,0,0,0,0,0,0,0,0,0,0,0,0,405,
scooby_state_400e51|27|1 404,0,0,0,0,0,0,0,0,0,0,1,0,0,0,405,
scooby_state_400df3|40|1 403,0,0,0,0,1,0,0,0,1,0,0,0,0,0,405,
scooby_state_400df3|42|1 404,0,0,0,0,0,1,0,0,0,0,0,0,0,0,405,
scooby_state_400e09|43|1 405,0,0,0,0,0,0,0,0,0,0,0,0,0,0,405,
scooby_state_400dda|33|1 405,0,0,0,0,0,0,0,0,0,0,0,0,0,0,405,
scooby_state_400e51|31|1 405,0,0,0,0,0,0,0,0,0,0,0,0,0,0,405,
scooby_state_400e20|40|1 404,0,0,0,0,0,0,0,0,1,0,0,0,0,0,405,
scooby_state_400e20|41|1 404,0,0,0,1,0,0,0,0,0,0,0,0,0,0,405,
scooby_state_400e20|33|1 405,0,0,0,0,0,0,0,0,0,0,0,0,0,0,405,
scooby_state_400dc0|39|1 404,0,0,0,0,0,0,0,1,0,0,0,0,0,0,405,
scooby_state_400e20|36|1 405,0,0,0,0,0,0,0,0,0,0,0,0,0,0,405,
scooby_state_400dc0|30|1 404,1,0,0,0,0,0,0,0,0,0,0,0,0,0,405,
scooby_state_400dc0|32|1 404,1,0,0,0,0,0,0,0,0,0,0,0,0,0,405,
scooby_state_400dc0|23|1 404,0,0,0,0,1,0,0,0,0,0,0,0,0,0,405,
scooby_state_400dda|46|1 401,1,0,0,0,0,0,2,1,0,0,0,0,0,0,405,
scooby_state_400e09|32|1 403,0,0,0,0,0,1,0,0,0,0,1,0,0,0,405,
scooby_state_400dda|44|1 404,0,0,0,1,0,0,0,0,0,0,0,0,0,0,405,
scooby_state_400df3|29|1 402,0,0,0,0,0,0,0,0,0,0,1,2,0,0,405,
scooby_state_400df3|34|1 403,0,0,1,1,0,0,0,0,0,0,0,0,0,0,405,
scooby_state_400df3|32|1 404,0,0,0,0,0,0,0,0,0,0,1,0,0,0,405,
scooby_state_400e09|31|1 404,0,0,0,0,0,0,1,0,0,0,0,0,0,0,405,
scooby_state_400dc0|33|1 404,0,0,0,0,0,0,0,1,0,0,0,0,0,0,405,
scooby_state_400e38|29|1 403,0,0,0,0,0,0,0,0,0,0,0,0,0,2,405,
scooby_state_400e38|30|1 404,0,0,0,0,0,0,0,0,0,0,0,0,0,1,405,
scooby_state_400e51|41|1 404,0,0,1,0,0,0,0,0,0,0,0,0,0,0,405,
scooby_state_400dc0|29|1 404,0,0,0,1,0,0,0,0,0,0,0,0,0,0,405,
scooby_state_400e09|47|1 404,0,0,0,0,0,0,0,0,1,0,0,0,0,0,405,
scooby_state_400e38|44|1 405,0,0,0,0,0,0,0,0,0,0,0,0,0,0,405,
scooby_state_400e20|32|1 404,0,0,0,0,1,0,0,0,0,0,0,0,0,0,405,
scooby_state_400e09|29|1 404,0,0,0,0,0,0,0,0,1,0,0,0,0,0,405,
scooby_state_400dc0|47|1 404,0,0,0,0,0,0,0,0,0,0,0,0,1,0,405,
scooby_state_400e09|39|1 404,0,0,0,0,0,0,0,0,0,0,0,0,1,0,405,
scooby_state_400dda|47|1 404,0,0,0,0,0,0,0,0,1,0,0,0,0,0,405,
scooby_state_400e09|30|1 404,0,0,0,0,0,0,0,0,0,0,0,1,0,0,405,
scooby_state_400e51|43|1 405,0,0,0,0,0,0,0,0,0,0,0,0,0,0,405,
scooby_state_400dda|39|1 405,0,0,0,0,0,0,0,0,0,0,0,0,0,0,405,
scooby_state_400e20|50|1 405,0,0,0,0,0,0,0,0,0,0,0,0,0,0,405,
scooby_state_400e09|27|1 405,0,0,0,0,0,0,0,0,0,0,0,0,0,0,405,
scooby_state_400e51|30|1 404,1,0,0,0,0,0,0,0,0,0,0,0,0,0,405,
scooby_state_400df3|27|1 405,0,0,0,0,0,0,0,0,0,0,0,0,0,0,405,
scooby_state_400e20|49|1 405,0,0,0,0,0,0,0,0,0,0,0,0,0,0,405,
scooby_state_400df3|43|1 404,0,0,0,0,0,0,0,0,0,0,1,0,0,0,405,
scooby_state_400e20|30|1 404,0,0,0,0,0,0,1,0,0,0,0,0,0,0,405,
scooby_state_400df3|46|1 405,0,0,0,0,0,0,0,0,0,0,0,0,0,0,405,
scooby_state_400e20|23|1 405,0,0,0,0,0,0,0,0,0,0,0,0,0,0,405,
scooby_state_400df3|47|1 405,0,0,0,0,0,0,0,0,0,0,0,0,0,0,405,
scooby_state_400e51|49|1 404,0,0,0,0,1,0,0,0,0,0,0,0,0,0,405,
scooby_state_400df3|24|1 405,0,0,0,0,0,0,0,0,0,0,0,0,0,0,405,
scooby_state_400dc0|31|1 404,0,0,0,0,0,0,0,1,0,0,0,0,0,0,405,
scooby_state_400dc0|50|1 404,0,0,0,0,0,0,0,0,1,0,0,0,0,0,405,
scooby_state_400df3|36|1 404,0,0,0,0,0,1,0,0,0,0,0,0,0,0,405,
scooby_state_400dda|50|1 405,0,0,0,0,0,0,0,0,0,0,0,0,0,0,405,
scooby_state_400dda|49|1 404,0,0,0,0,0,0,0,0,0,0,0,1,0,0,405,
scooby_state_400dc0|42|1 404,0,0,1,0,0,0,0,0,0,0,0,0,0,0,405,
scooby_state_400dc0|36|1 405,0,0,0,0,0,0,0,0,0,0,0,0,0,0,405,
scooby_state_400e20|44|1 404,0,0,0,0,0,0,0,0,0,0,0,0,1,0,405,
scooby_state_400e38|28|1 404,0,0,0,0,0,0,0,0,0,0,0,0,0,1,405,
scooby_state_400e51|29|1 404,1,0,0,0,0,0,0,0,0,0,0,0,0,0,405,
scooby_state_400df3|39|1 405,0,0,0,0,0,0,0,0,0,0,0,0,0,0,405,
scooby_state_400dc0|27|1 405,0,0,0,0,0,0,0,0,0,0,0,0,0,0,405,
scooby_state_400e38|43|1 403,0,0,0,0,0,1,0,0,0,0,0,1,0,0,405,
scooby_state_400dc0|28|1 404,0,0,1,0,0,0,0,0,0,0,0,0,0,0,405,
scooby_state_400e09|46|1 405,0,0,0,0,0,0,0,0,0,0,0,0,0,0,405,
scooby_state_400e38|35|1 404,0,0,0,0,0,0,1,0,0,0,0,0,0,0,405,
scooby_state_400dda|43|1 404,0,0,0,1,0,0,0,0,0,0,0,0,0,0,405,
scooby_state_400e20|39|1 405,0,0,0,0,0,0,0,0,0,0,0,0,0,0,405,
scooby_state_400e51|35|1 405,0,0,0,0,0,0,0,0,0,0,0,0,0,0,405,
scooby_state_400e09|38|1 404,0,0,0,0,1,0,0,0,0,0,0,0,0,0,405,
scooby_state_400e38|32|1 403,0,0,0,0,0,0,2,0,0,0,0,0,0,0,405,
scooby_state_400e51|44|1 405,0,0,0,0,0,0,0,0,0,0,0,0,0,0,405,
scooby_state_400e51|40|1 405,0,0,0,0,0,0,0,0,0,0,0,0,0,0,405,
scooby_state_400e51|34|1 405,0,0,0,0,0,0,0,0,0,0,0,0,0,0,405,
scooby_state_400e51|32|1 404,0,0,0,1,0,0,0,0,0,0,0,0,0,0,405,
scooby_state_400e20|42|1 404,0,0,0,1,0,0,0,0,0,0,0,0,0,0,405,
scooby_state_400df3|28|1 403,0,0,0,0,0,0,2,0,0,0,0,0,0,0,405,
scooby_state_400e20|1|1 403,0,1,0,0,0,0,0,0,0,0,0,0,0,0,404,
scooby_state_400e51|15|1 404,0,0,0,0,0,0,0,0,0,0,0,0,0,0,404,
scooby_state_400dda|13|1 403,1,0,0,0,0,0,0,0,0,0,0,0,0,0,404,
scooby_state_400e20|8|1 404,0,0,0,0,0,0,0,0,0,0,0,0,0,0,404,
scooby_state_400dc0|1|1 404,0,0,0,0,0,0,0,0,0,0,0,0,0,0,404,
scooby_state_400e38|17|1 404,0,0,0,0,0,0,0,0,0,0,0,0,0,0,404,
scooby_state_400e20|18|1 402,0,0,1,1,0,0,0,0,0,0,0,0,0,0,404,
scooby_state_400dc0|9|1 402,0,0,0,1,0,0,0,0,0,0,0,0,0,1,404,
scooby_state_400dda|14|1 403,0,0,1,0,0,0,0,0,0,0,0,0,0,0,404,
scooby_state_400e51|11|1 403,0,0,1,0,0,0,0,0,0,0,0,0,0,0,404,
scooby_state_400df3|13|1 404,0,0,0,0,0,0,0,0,0,0,0,0,0,0,404,
scooby_state_400df3|6|1 404,0,0,0,0,0,0,0,0,0,0,0,0,0,0,404,
scooby_state_400e38|15|1 404,0,0,0,0,0,0,0,0,0,0,0,0,0,0,404,
scooby_state_400dda|11|1 404,0,0,0,0,0,0,0,0,0,0,0,0,0,0,404,
scooby_state_400e20|25|1 403,0,1,0,0,0,0,0,0,0,0,0,0,0,0,404,
scooby_state_400e09|25|1 404,0,0,0,0,0,0,0,0,0,0,0,0,0,0,404,
scooby_state_400e20|0|0 404,0,0,0,0,0,0,0,0,0,0,0,0,0,0,404,
scooby_state_400e09|19|1 404,0,0,0,0,0,0,0,0,0,0,0,0,0,0,404,
scooby_state_400dda|12|1 403,0,0,0,0,0,0,0,0,0,0,0,0,0,1,404,
scooby_state_400e38|19|1 403,1,0,0,0,0,0,0,0,0,0,0,0,0,0,404,
scooby_state_400e38|24|1 404,0,0,0,0,0,0,0,0,0,0,0,0,0,0,404,
scooby_state_400dda|24|1 402,0,0,0,0,0,0,0,1,1,0,0,0,0,0,404,
scooby_state_400e38|1|1 403,0,0,0,0,0,0,0,0,0,1,0,0,0,0,404,
scooby_state_400e20|22|1 404,0,0,0,0,0,0,0,0,0,0,0,0,0,0,404,
scooby_state_400e38|20|1 404,0,0,0,0,0,0,0,0,0,0,0,0,0,0,404,
scooby_state_400dda|9|1 403,1,0,0,0,0,0,0,0,0,0,0,0,0,0,404,
scooby_state_400dc0|6|1 404,0,0,0,0,0,0,0,0,0,0,0,0,0,0,404,
scooby_state_400dc0|24|1 404,0,0,0,0,0,0,0,0,0,0,0,0,0,0,404,
scooby_state_400dc0|16|1 402,0,0,1,0,0,1,0,0,0,0,0,0,0,0,404,
scooby_state_400e51|18|1 403,1,0,0,0,0,0,0,0,0,0,0,0,0,0,404,
scooby_state_400dc0|11|1 404,0,0,0,0,0,0,0,0,0,0,0,0,0,0,404,
scooby_state_400e51|20|1 403,0,0,0,0,1,0,0,0,0,0,0,0,0,0,404,
scooby_state_400e38|25|1 402,0,1,0,0,0,0,0,0,0,0,0,0,0,1,404,
scooby_state_400e38|0|0 403,0,0,0,0,0,0,0,1,0,0,0,0,0,0,404,
scooby_state_400e09|26|1 402,0,1,0,0,0,0,0,0,1,0,0,0,0,0,404,
scooby_state_400dc0|13|1 403,0,1,0,0,0,0,0,0,0,0,0,0,0,0,404,
scooby_state_400e09|0|0 402,0,0,1,0,0,0,0,1,0,0,0,0,0,0,404,
scooby_state_400dda|1|1 404,0,0,0,0,0,0,0,0,0,0,0,0,0,0,404,
scooby_state_400e51|8|1 404,0,0,0,0,0,0,0,0,0,0,0,0,0,0,404,
scooby_state_400e51|2|1 404,0,0,0,0,0,0,0,0,0,0,0,0,0,0,404,
scooby_state_400e51|13|1 404,0,0,0,0,0,0,0,0,0,0,0,0,0,0,404,
scooby_state_400e09|22|1 403,0,0,0,0,0,0,0,0,1,0,0,0,0,0,404,
scooby_state_400e20|5|1 403,0,0,0,0,0,0,0,0,0,0,0,1,0,0,404,
scooby_state_400e38|6|1 404,0,0,0,0,0,0,0,0,0,0,0,0,0,0,404,
scooby_state_400e20|9|1 401,0,1,0,0,1,0,1,0,0,0,0,0,0,0,404,
scooby_state_400e09|11|1 404,0,0,0,0,0,0,0,0,0,0,0,0,0,0,404,
scooby_state_400dda|19|1 404,0,0,0,0,0,0,0,0,0,0,0,0,0,0,404,
scooby_state_400e20|24|1 404,0,0,0,0,0,0,0,0,0,0,0,0,0,0,404,
scooby_state_400df3|4|1 404,0,0,0,0,0,0,0,0,0,0,0,0,0,0,404,
scooby_state_400df3|0|0 404,0,0,0,0,0,0,0,0,0,0,0,0,0,0,404,
scooby_state_400e20|2|1 403,0,0,0,0,0,0,0,0,1,0,0,0,0,0,404,
scooby_state_400e51|6|1 404,0,0,0,0,0,0,0,0,0,0,0,0,0,0,404,
scooby_state_400df3|14|1 404,0,0,0,0,0,0,0,0,0,0,0,0,0,0,404,
scooby_state_400e09|9|1 404,0,0,0,0,0,0,0,0,0,0,0,0,0,0,404,
scooby_state_400dc0|5|1 404,0,0,0,0,0,0,0,0,0,0,0,0,0,0,404,
scooby_state_400df3|15|1 404,0,0,0,0,0,0,0,0,0,0,0,0,0,0,404,
scooby_state_400dda|10|1 402,0,0,1,0,0,0,0,0,0,0,0,1,0,0,404,
scooby_state_400df3|1|1 402,0,0,0,0,0,0,0,0,0,0,0,0,2,0,404,
scooby_state_400e09|1|1 402,0,0,0,0,0,0,1,1,0,0,0,0,0,0,404,
scooby_state_400df3|16|1 403,0,0,0,0,0,0,0,1,0,0,0,0,0,0,404,
scooby_state_400dda|6|1 404,0,0,0,0,0,0,0,0,0,0,0,0,0,0,404,
scooby_state_400e51|10|1 403,0,0,0,0,0,0,0,0,0,0,0,0,1,0,404,
scooby_state_400e38|16|1 402,0,0,0,1,0,0,0,0,0,0,0,0,0,1,404,
scooby_state_400e51|21|1 404,0,0,0,0,0,0,0,0,0,0,0,0,0,0,404,
scooby_state_400df3|8|1 404,0,0,0,0,0,0,0,0,0,0,0,0,0,0,404,
scooby_state_400e38|13|1 403,1,0,0,0,0,0,0,0,0,0,0,0,0,0,404,
scooby_state_400e20|17|1 404,0,0,0,0,0,0,0,0,0,0,0,0,0,0,404,
scooby_state_400dc0|14|1 403,0,0,1,0,0,0,0,0,0,0,0,0,0,0,404,
scooby_state_400df3|17|1 404,0,0,0,0,0,0,0,0,0,0,0,0,0,0,404,
scooby_state_400e09|17|1 404,0,0,0,0,0,0,0,0,0,0,0,0,0,0,404,
scooby_state_400dc0|15|1 402,0,0,0,0,0,0,0,0,1,0,0,1,0,0,404,
scooby_state_400e20|19|1 403,0,0,0,0,0,0,0,0,0,0,0,0,0,1,404,
scooby_state_400e20|13|1 403,0,0,0,0,0,0,0,0,0,1,0,0,0,0,404,
scooby_state_400e09|16|1 403,0,0,0,0,0,0,0,0,0,0,0,1,0,0,404,
scooby_state_400e20|11|1 404,0,0,0,0,0,0,0,0,0,0,0,0,0,0,404,
scooby_state_400dda|15|1 404,0,0,0,0,0,0,0,0,0,0,0,0,0,0,404,
scooby_state_400dc0|17|1 404,0,0,0,0,0,0,0,0,0,0,0,0,0,0,404,
scooby_state_400dda|17|1 403,0,0,0,0,0,1,0,0,0,0,0,0,0,0,404,
scooby_state_400e38|4|1 403,0,0,0,1,0,0,0,0,0,0,0,0,0,0,404,
scooby_state_400e09|13|1 403,0,0,0,1,0,0,0,0,0,0,0,0,0,0,404,
scooby_state_400e51|5|1 403,0,0,1,0,0,0,0,0,0,0,0,0,0,0,404,
scooby_state_400e20|12|1 404,0,0,0,0,0,0,0,0,0,0,0,0,0,0,404,
scooby_state_400e09|6|1 404,0,0,0,0,0,0,0,0,0,0,0,0,0,0,404,
scooby_state_400dc0|19|1 402,0,0,0,0,0,0,1,0,0,1,0,0,0,0,404,
scooby_state_400e09|12|1 403,0,0,0,0,0,0,0,1,0,0,0,0,0,0,404,
scooby_state_400df3|12|1 403,0,0,1,0,0,0,0,0,0,0,0,0,0,0,404,
scooby_state_400e38|11|1 404,0,0,0,0,0,0,0,0,0,0,0,0,0,0,404,
scooby_state_400e20|15|1 404,0,0,0,0,0,0,0,0,0,0,0,0,0,0,404,
scooby_state_400e20|16|1 404,0,0,0,0,0,0,0,0,0,0,0,0,0,0,404,
scooby_state_400e38|18|1 403,0,0,0,0,0,0,0,0,0,0,0,0,0,1,404,
scooby_state_400e09|10|1 404,0,0,0,0,0,0,0,0,0,0,0,0,0,0,404,
scooby_state_400e51|9|1 404,0,0,0,0,0,0,0,0,0,0,0,0,0,0,404,
scooby_state_400e51|17|1 404,0,0,0,0,0,0,0,0,0,0,0,0,0,0,404,
scooby_state_400e09|8|1 404,0,0,0,0,0,0,0,0,0,0,0,0,0,0,404,
scooby_state_400dc0|8|1 404,0,0,0,0,0,0,0,0,0,0,0,0,0,0,404,
scooby_state_400dda|8|1 404,0,0,0,0,0,0,0,0,0,0,0,0,0,0,404,
scooby_state_400e51|25|1 404,0,0,0,0,0,0,0,0,0,0,0,0,0,0,404,
scooby_state_400e51|22|1 404,0,0,0,0,0,0,0,0,0,0,0,0,0,0,404,
scooby_state_400dda|2|1 404,0,0,0,0,0,0,0,0,0,0,0,0,0,0,404,
scooby_state_400e09|18|1 403,0,0,0,0,1,0,0,0,0,0,0,0,0,0,404,
scooby_state_400dc0|25|1 404,0,0,0,0,0,0,0,0,0,0,0,0,0,0,404,
scooby_state_400df3|26|1 402,0,0,0,0,1,0,0,0,0,0,0,0,1,0,404,
scooby_state_400e20|26|1 403,0,0,0,1,0,0,0,0,0,0,0,0,0,0,404,
scooby_state_400e38|26|1 403,0,0,0,0,0,0,0,0,0,1,0,0,0,0,404,
scooby_state_400e51|26|1 403,1,0,0,0,0,0,0,0,0,0,0,0,0,0,404,
scooby_state_400dc0|26|1 402,0,0,1,0,0,0,0,0,0,0,0,0,0,1,404,
scooby_state_400df3|19|1 404,0,0,0,0,0,0,0,0,0,0,0,0,0,0,404,
scooby_state_400dc0|12|1 403,0,0,0,0,0,0,0,0,0,1,0,0,0,0,404,
scooby_state_400e51|16|1 402,1,0,0,0,0,0,0,0,0,0,0,0,0,1,404,
scooby_state_400e09|14|1 403,0,1,0,0,0,0,0,0,0,0,0,0,0,0,404,
scooby_state_400e38|12|1 403,0,0,0,0,0,0,0,0,0,0,0,0,0,1,404,
scooby_state_400e51|1|1 403,0,0,0,0,1,0,0,0,0,0,0,0,0,0,404,
scooby_state_400df3|20|1 403,0,0,0,0,0,0,1,0,0,0,0,0,0,0,404,
scooby_state_400df3|7|1 404,0,0,0,0,0,0,0,0,0,0,0,0,0,0,404,
scooby_state_400dda|26|1 404,0,0,0,0,0,0,0,0,0,0,0,0,0,0,404,
scooby_state_400e09|20|1 403,1,0,0,0,0,0,0,0,0,0,0,0,0,0,404,
scooby_state_400df3|25|1 404,0,0,0,0,0,0,0,0,0,0,0,0,0,0,404,
scooby_state_400dda|25|1 402,0,1,0,0,1,0,0,0,0,0,0,0,0,0,404,
scooby_state_400e51|4|1 402,0,0,0,0,0,1,0,0,0,0,0,0,1,0,404,
scooby_state_400df3|11|1 404,0,0,0,0,0,0,0,0,0,0,0,0,0,0,404,
scooby_state_400df3|22|1 404,0,0,0,0,0,0,0,0,0,0,0,0,0,0,404,
scooby_state_400dc0|22|1 404,0,0,0,0,0,0,0,0,0,0,0,0,0,0,404,
scooby_state_400e38|22|1 403,0,0,0,0,0,0,0,0,0,0,0,0,0,1,404,
scooby_state_400e09|21|1 403,0,0,0,0,0,0,0,0,0,0,0,0,0,1,404,
scooby_state_400df3|21|1 403,0,0,0,1,0,0,0,0,0,0,0,0,0,0,404,
scooby_state_400e51|19|1 403,0,0,0,0,0,0,0,0,0,0,0,0,0,1,404,
scooby_state_400e20|6|1 403,0,0,0,0,0,0,0,1,0,0,0,0,0,0,404,
scooby_state_400df3|9|1 403,0,0,0,1,0,0,0,0,0,0,0,0,0,0,404,
scooby_state_400df3|3|1 403,0,1,0,0,0,0,0,0,0,0,0,0,0,0,404,
scooby_state_400e09|3|1 403,0,0,0,0,0,0,0,0,0,1,0,0,0,0,404,
scooby_state_400e51|14|1 404,0,0,0,0,0,0,0,0,0,0,0,0,0,0,404,
scooby_state_400e38|8|1 402,0,0,0,0,0,0,1,1,0,0,0,0,0,0,404,
scooby_state_400e09|2|1 404,0,0,0,0,0,0,0,0,0,0,0,0,0,0,404,
scooby_state_400e38|14|1 402,0,0,0,0,1,0,0,0,0,1,0,0,0,0,404,
scooby_state_400e09|15|1 404,0,0,0,0,0,0,0,0,0,0,0,0,0,0,404,
scooby_state_400dc0|20|1 404,0,0,0,0,0,0,0,0,0,0,0,0,0,0,404,
scooby_state_400e51|12|1 403,0,0,0,0,0,0,0,0,0,0,1,0,0,0,404,
scooby_state_400dda|16|1 404,0,0,0,0,0,0,0,0,0,0,0,0,0,0,404,
scooby_state_400e38|9|1 404,0,0,0,0,0,0,0,0,0,0,0,0,0,0,404,
scooby_state_400dda|22|1 403,0,1,0,0,0,0,0,0,0,0,0,0,0,0,404,
scooby_state_400e20|14|1 403,0,0,0,0,0,0,0,0,0,0,1,0,0,0,404,
scooby_state_400e09|4|1 400,0,1,0,1,0,0,0,0,0,0,0,1,0,0,403,
scooby_state_400e38|10|1 403,0,0,0,0,0,0,0,0,0,0,0,0,0,0,403,
scooby_state_400e38|21|1 403,0,0,0,0,0,0,0,0,0,0,0,0,0,0,403,
scooby_state_400df3|5|1 403,0,0,0,0,0,0,0,0,0,0,0,0,0,0,403,
scooby_state_400e38|2|1 403,0,0,0,0,0,0,0,0,0,0,0,0,0,0,403,
scooby_state_400e20|20|1 403,0,0,0,0,0,0,0,0,0,0,0,0,0,0,403,
scooby_state_400dc0|3|1 403,0,0,0,0,0,0,0,0,0,0,0,0,0,0,403,
scooby_state_400e51|3|1 401,0,0,0,1,0,0,0,0,0,1,0,0,0,0,403,
scooby_state_400e20|4|1 401,0,0,0,0,0,0,0,0,1,0,1,0,0,0,403,
scooby_state_400dc0|4|1 403,0,0,0,0,0,0,0,0,0,0,0,0,0,0,403,
scooby_state_400dda|4|1 403,0,0,0,0,0,0,0,0,0,0,0,0,0,0,403,
scooby_state_400e20|7|1 401,0,0,0,0,0,0,0,1,0,0,0,0,1,0,403,
scooby_state_400dc0|7|1 402,0,0,0,0,0,0,1,0,0,0,0,0,0,0,403,
scooby_state_400e09|5|1 403,0,0,0,0,0,0,0,0,0,0,0,0,0,0,403,
scooby_state_400df3|10|1 401,0,1,0,0,0,0,0,0,0,0,0,0,0,1,403,
scooby_state_400dda|18|1 402,0,1,0,0,0,0,0,0,0,0,0,0,0,0,403,
scooby_state_400df3|18|1 402,0,0,0,1,0,0,0,0,0,0,0,0,0,0,403,
scooby_state_400e20|21|1 402,0,0,0,0,0,0,0,0,0,0,0,0,1,0,403,
scooby_state_400dc0|18|1 403,0,0,0,0,0,0,0,0,0,0,0,0,0,0,403,
scooby_state_400dc0|2|1 403,0,0,0,0,0,0,0,0,0,0,0,0,0,0,403,
scooby_state_400dda|20|1 402,0,0,0,0,0,0,0,0,1,0,0,0,0,0,403,
scooby_state_400e51|7|1 402,0,0,0,1,0,0,0,0,0,0,0,0,0,0,403,
scooby_state_400dda|5|1 403,0,0,0,0,0,0,0,0,0,0,0,0,0,0,403,
scooby_state_400e38|3|1 401,0,0,0,0,0,0,0,0,0,0,0,0,0,2,403,
scooby_state_400dc0|10|1 402,0,0,0,1,0,0,0,0,0,0,0,0,0,0,403,
scooby_state_400e09|60|1 402,0,0,0,0,0,0,0,0,0,0,0,0,1,0,403,
scooby_state_400e20|10|1 403,0,0,0,0,0,0,0,0,0,0,0,0,0,0,403,
scooby_state_400dc0|21|1 401,0,0,1,1,0,0,0,0,0,0,0,0,0,0,403,
scooby_state_400e09|7|1 402,0,0,0,0,0,0,1,0,0,0,0,0,0,0,403,
scooby_state_400df3|2|1 402,0,0,0,0,0,0,1,0,0,0,0,0,0,0,403,
scooby_state_400e38|5|1 402,0,0,0,0,0,0,0,0,0,0,1,0,0,0,403,
scooby_state_400dda|3|1 403,0,0,0,0,0,0,0,0,0,0,0,0,0,0,403,
scooby_state_400dda|21|1 403,0,0,0,0,0,0,0,0,0,0,0,0,0,0,403,
scooby_state_400e20|3|1 402,0,0,0,0,0,0,0,0,0,1,0,0,0,0,403,
scooby_state_400e38|7|1 402,1,0,0,0,0,0,0,0,0,0,0,0,0,0,403,
scooby_state_400dda|7|1 403,0,0,0,0,0,0,0,0,0,0,0,0,0,0,403,
scooby_state_400e51|60|1 399,0,0,0,0,0,1,0,0,0,0,0,0,0,0,400,
scooby_state_400e09|55|1 397,0,0,0,0,0,0,0,0,1,1,0,0,1,0,400,
scooby_state_400df3|60|1 398,0,0,0,0,0,0,0,0,0,0,0,0,0,0,398,
scooby_state_400df3|55|1 397,0,0,0,0,0,0,0,0,0,0,0,0,1,0,398,
scooby_state_400e51|55|1 397,0,0,0,0,0,0,0,0,0,0,0,0,0,0,397,
scooby_state_400e38|63|1 396,0,0,0,0,0,0,0,0,0,0,0,0,0,0,396,
scooby_state_400e09|59|1 395,0,0,0,0,0,0,0,0,0,0,0,0,0,0,395,
scooby_state_400e09|54|1 392,0,1,0,0,0,0,0,0,0,0,0,0,0,0,393,
scooby_state_400e20|55|1 393,0,0,0,0,0,0,0,0,0,0,0,0,0,0,393,
scooby_state_400e38|60|1 390,0,0,1,0,0,0,0,0,0,0,1,0,0,0,392,
scooby_state_400dc0|52|1 390,0,0,0,0,0,1,0,1,0,0,0,0,0,0,392,
scooby_state_400e20|60|1 391,0,0,0,0,0,0,0,0,0,0,0,0,0,0,391,
scooby_state_400e51|52|1 390,0,0,0,0,0,0,0,0,1,0,0,0,0,0,391,
scooby_state_400dda|60|1 390,0,0,0,0,0,0,0,0,0,1,0,0,0,0,391,
scooby_state_400e09|57|1 390,0,0,0,0,0,0,0,0,0,0,1,0,0,0,391,
scooby_state_400e09|62|1 390,0,0,0,0,0,0,0,0,1,0,0,0,0,0,391,
scooby_state_400e09|52|1 390,0,0,0,0,0,0,0,0,0,0,0,0,0,0,390,
scooby_state_400df3|62|1 389,1,0,0,0,0,0,0,0,0,0,0,0,0,0,390,
scooby_state_400e38|55|1 389,0,0,0,1,0,0,0,0,0,0,0,0,0,0,390,
scooby_state_400df3|59|1 388,0,0,0,0,0,0,0,0,0,0,1,1,0,0,390,
scooby_state_400e51|59|1 389,0,0,0,0,0,0,0,0,0,0,0,0,0,0,389,
scooby_state_400df3|57|1 388,0,0,0,0,0,0,0,0,0,0,0,1,0,0,389,
scooby_state_400e51|62|1 387,0,0,0,0,0,1,0,0,0,0,0,0,0,0,388,
scooby_state_400dc0|60|1 388,0,0,0,0,0,0,0,0,0,0,0,0,0,0,388,
scooby_state_400dc0|55|1 386,1,1,0,0,0,0,0,0,0,0,0,0,0,0,388,
scooby_state_400df3|54|1 387,0,0,0,1,0,0,0,0,0,0,0,0,0,0,388,
scooby_state_400e38|62|1 386,0,0,0,0,0,0,0,0,0,1,0,0,0,0,387,
scooby_state_400dc0|62|1 386,0,0,0,0,0,0,0,0,1,0,0,0,0,0,387,
scooby_state_400e51|54|1 387,0,0,0,0,0,0,0,0,0,0,0,0,0,0,387,
scooby_state_400dda|55|1 387,0,0,0,0,0,0,0,0,0,0,0,0,0,0,387,
scooby_state_400df3|52|1 385,0,0,0,0,1,0,0,0,0,0,0,0,0,0,386,
scooby_state_400e09|53|1 383,0,0,1,0,0,0,0,0,0,0,1,0,0,0,385,
scooby_state_400e09|58|1 383,0,0,0,0,1,1,0,0,0,0,0,0,0,0,385,
scooby_state_400e51|57|1 382,0,1,0,1,0,0,0,0,0,0,0,0,0,0,384,
scooby_state_400df3|58|1 382,0,0,0,1,0,0,0,0,0,0,0,0,0,0,383,
scooby_state_400e38|52|1 382,0,0,0,0,0,0,0,0,0,0,0,1,0,0,383,
scooby_state_400e38|59|1 379,0,0,0,1,0,0,0,0,0,0,0,0,0,1,381,
scooby_state_400dda|62|1 378,0,0,0,0,0,0,0,0,1,0,0,0,0,1,380,
scooby_state_400e38|54|1 379,0,0,0,0,0,0,0,0,0,0,1,0,0,0,380,
scooby_state_400e51|53|1 378,0,0,0,0,0,0,0,0,0,0,0,1,0,0,379,
scooby_state_400dda|59|1 377,0,0,0,0,0,0,0,0,0,0,0,0,0,0,377,
scooby_state_400df3|53|1 376,0,0,0,0,0,0,0,0,0,0,0,0,0,0,376,
scooby_state_400e20|62|1 374,0,0,0,0,0,0,0,0,0,1,0,0,1,0,376,
scooby_state_400e38|58|1 375,0,0,0,0,0,0,0,0,0,0,0,0,0,0,375,
scooby_state_400dda|57|1 375,0,0,0,0,0,0,0,0,0,0,0,0,0,0,375,
scooby_state_400e20|59|1 374,0,0,0,0,0,0,1,0,0,0,0,0,0,0,375,
scooby_state_400e20|54|1 374,0,0,0,0,0,0,0,0,0,0,0,0,0,0,374,
scooby_state_400dc0|59|1 372,0,0,1,0,0,0,0,0,0,0,0,0,0,0,373,
scooby_state_400dc0|54|1 373,0,0,0,0,0,0,0,0,0,0,0,0,0,0,373,
scooby_state_400dc0|57|1 372,0,0,0,0,0,0,0,0,0,0,0,0,0,0,372,
scooby_state_400e51|58|1 372,0,0,0,0,0,0,0,0,0,0,0,0,0,0,372,
scooby_state_400dc0|53|1 369,0,0,0,0,0,0,1,0,0,0,0,0,0,0,370,
scooby_state_400dda|54|1 369,0,0,0,0,0,0,0,0,0,0,0,0,0,0,369,
scooby_state_400e38|57|1 363,1,0,1,0,1,0,0,0,0,0,0,0,0,0,366,
scooby_state_400e20|53|1 365,0,0,0,0,0,0,0,0,0,0,0,0,0,0,365,
scooby_state_400e38|53|1 364,0,0,0,0,0,0,0,0,0,0,0,0,0,0,364,
scooby_state_400dda|52|1 363,0,0,0,0,0,0,0,0,0,0,0,0,0,0,363,
scooby_state_400e20|52|1 358,0,0,1,0,0,0,0,0,0,0,0,0,0,0,359,
scooby_state_400dda|53|1 359,0,0,0,0,0,0,0,0,0,0,0,0,0,0,359,
scooby_state_400e20|57|1 357,0,0,0,0,0,0,0,0,0,0,0,1,0,0,358,
scooby_state_400dda|58|1 358,0,0,0,0,0,0,0,0,0,0,0,0,0,0,358,
scooby_state_400e20|58|1 354,0,0,0,0,0,0,0,0,0,1,0,0,0,0,355,
scooby_state_400dc0|58|1 349,0,0,0,0,1,0,0,0,0,0,0,0,0,0,350,
scooby_state_400d59|62|0 171,0,0,0,0,0,0,0,0,1,0,0,0,0,0,172,
scooby_state_400e44|49|0 159,0,0,0,0,0,0,0,0,0,0,0,0,0,0,159,
scooby_state_400e7c|60|0 158,0,0,0,0,0,0,0,0,0,0,0,0,0,0,158,
scooby_state_400d3b|63|0 4,4,2,6,3,122,0,0,0,0,0,0,0,0,0,141,
scooby_state_400dc0|54|0 128,0,0,0,0,0,0,0,0,0,0,0,0,0,0,128,
scooby_state_400dc0|62|0 124,0,0,0,0,0,0,0,0,0,0,0,0,0,0,124,
scooby_state_400e13|56|1 116,0,0,0,0,0,0,0,0,0,0,0,0,0,0,116,
scooby_state_400e5e|63|1 116,0,0,0,0,0,0,0,0,0,0,0,0,0,0,116,
scooby_state_400e44|63|0 111,0,0,0,0,0,0,0,0,0,1,0,0,0,0,112,
scooby_state_400dc0|60|0 112,0,0,0,0,0,0,0,0,0,0,0,0,0,0,112,
scooby_state_400dc0|49|0 110,0,0,0,0,0,0,0,0,0,0,0,1,0,0,111,
scooby_state_400dc0|63|0 108,0,0,0,0,0,0,0,0,0,0,0,0,0,0,108,
scooby_state_400e5e|62|1 107,0,0,0,0,0,0,0,0,0,0,0,0,0,0,107,
scooby_state_400e20|54|0 95,0,0,0,0,0,0,0,0,0,0,0,0,0,0,95,
scooby_state_400eac|56|0 94,0,0,0,0,0,0,0,0,0,0,0,0,0,0,94,
scooby_state_400d3b|63|1 94,0,0,0,0,0,0,0,0,0,0,0,0,0,0,94,
scooby_state_400e20|63|0 92,0,0,0,0,0,0,0,0,0,0,0,0,0,0,92,
scooby_state_400ed8|54|0 91,0,0,0,0,0,0,0,0,0,0,0,0,0,0,91,
scooby_state_400dc0|50|-1 89,0,0,0,0,0,0,0,0,0,0,0,0,0,1,90,
scooby_state_400dc0|50|0 86,0,0,0,0,0,0,0,0,0,0,0,0,0,0,86,
scooby_state_400dc0|55|-1 85,0,0,0,0,0,0,0,1,0,0,0,0,0,0,86,
scooby_state_400eac|56|1 85,0,0,0,0,0,0,0,0,0,0,0,0,0,0,85,
scooby_state_400dfd|0|0 84,0,0,0,0,0,0,0,0,0,0,1,0,0,0,85,
scooby_state_400de5|38|1 84,0,0,0,0,0,0,0,0,0,0,0,0,0,0,84,
scooby_state_400de5|32|1 84,0,0,0,0,0,0,0,0,0,0,0,0,0,0,84,
scooby_state_400de5|36|1 83,0,0,0,0,1,0,0,0,0,0,0,0,0,0,84,
scooby_state_400de5|33|1 84,0,0,0,0,0,0,0,0,0,0,0,0,0,0,84,
scooby_state_400de5|30|1 84,0,0,0,0,0,0,0,0,0,0,0,0,0,0,84,
scooby_state_400de5|28|1 84,0,0,0,0,0,0,0,0,0,0,0,0,0,0,84,
scooby_state_400de5|31|1 84,0,0,0,0,0,0,0,0,0,0,0,0,0,0,84,
scooby_state_400de5|37|1 84,0,0,0,0,0,0,0,0,0,0,0,0,0,0,84,
scooby_state_400dc0|55|0 83,1,0,0,0,0,0,0,0,0,0,0,0,0,0,84,
scooby_state_400de5|25|1 83,0,0,0,0,0,0,0,0,0,0,0,1,0,0,84,
scooby_state_400de5|39|1 83,0,0,0,0,0,0,0,0,0,0,0,0,0,0,83,
scooby_state_400de5|35|1 83,0,0,0,0,0,0,0,0,0,0,0,0,0,0,83,
scooby_state_400de5|27|1 83,0,0,0,0,0,0,0,0,0,0,0,0,0,0,83,
scooby_state_400de5|29|1 82,0,0,0,0,0,0,0,0,0,0,1,0,0,0,83,
scooby_state_400de5|34|1 82,0,0,0,1,0,0,0,0,0,0,0,0,0,0,83,
scooby_state_400dfd|1|1 83,0,0,0,0,0,0,0,0,0,0,0,0,0,0,83,
scooby_state_400de5|26|1 83,0,0,0,0,0,0,0,0,0,0,0,0,0,0,83,
scooby_state_400de5|40|1 83,0,0,0,0,0,0,0,0,0,0,0,0,0,0,83,
scooby_state_400e20|62|0 82,0,0,0,0,0,0,0,0,0,0,0,0,0,0,82,
scooby_state_400e5e|61|0 82,0,0,0,0,0,0,0,0,0,0,0,0,0,0,82,
scooby_state_400dfd|5|1 82,0,0,0,0,0,0,0,0,0,0,0,0,0,0,82,
scooby_state_400dfd|4|1 82,0,0,0,0,0,0,0,0,0,0,0,0,0,0,82,
scooby_state_400dfd|2|1 82,0,0,0,0,0,0,0,0,0,0,0,0,0,0,82,
scooby_state_400dfd|3|1 82,0,0,0,0,0,0,0,0,0,0,0,0,0,0,82,
scooby_state_400e13|18|1 80,1,0,0,0,0,0,0,0,0,0,0,0,0,0,81,
scooby_state_400e13|0|0 81,0,0,0,0,0,0,0,0,0,0,0,0,0,0,81,
scooby_state_400e5e|32|1 81,0,0,0,0,0,0,0,0,0,0,0,0,0,0,81,
scooby_state_400e5e|44|1 81,0,0,0,0,0,0,0,0,0,0,0,0,0,0,81,
scooby_state_400e5e|57|1 81,0,0,0,0,0,0,0,0,0,0,0,0,0,0,81,
scooby_state_400e5e|30|1 81,0,0,0,0,0,0,0,0,0,0,0,0,0,0,81,
scooby_state_400e5e|54|1 81,0,0,0,0,0,0,0,0,0,0,0,0,0,0,81,
scooby_state_400dfd|39|1 81,0,0,0,0,0,0,0,0,0,0,0,0,0,0,81,
scooby_state_400dfd|11|1 81,0,0,0,0,0,0,0,0,0,0,0,0,0,0,81,
scooby_state_400e5e|48|1 81,0,0,0,0,0,0,0,0,0,0,0,0,0,0,81,
scooby_state_400e13|27|1 81,0,0,0,0,0,0,0,0,0,0,0,0,0,0,81,
scooby_state_400e13|14|1 81,0,0,0,0,0,0,0,0,0,0,0,0,0,0,81,
scooby_state_400e5e|33|1 81,0,0,0,0,0,0,0,0,0,0,0,0,0,0,81,
scooby_state_400e13|28|1 81,0,0,0,0,0,0,0,0,0,0,0,0,0,0,81,
scooby_state_400e5e|47|1 81,0,0,0,0,0,0,0,0,0,0,0,0,0,0,81,
scooby_state_400e13|16|1 81,0,0,0,0,0,0,0,0,0,0,0,0,0,0,81,
scooby_state_400e13|22|1 81,0,0,0,0,0,0,0,0,0,0,0,0,0,0,81,
scooby_state_400de5|41|1 81,0,0,0,0,0,0,0,0,0,0,0,0,0,0,81,
scooby_state_400e5e|26|1 81,0,0,0,0,0,0,0,0,0,0,0,0,0,0,81,
scooby_state_400dfd|12|1 81,0,0,0,0,0,0,0,0,0,0,0,0,0,0,81,
scooby_state_400e5e|56|1 80,0,0,0,0,0,0,0,0,0,0,0,0,0,1,81,
scooby_state_400e13|17|1 81,0,0,0,0,0,0,0,0,0,0,0,0,0,0,81,
scooby_state_400e13|13|1 81,0,0,0,0,0,0,0,0,0,0,0,0,0,0,81,
scooby_state_400e13|40|1 81,0,0,0,0,0,0,0,0,0,0,0,0,0,0,81,
scooby_state_400e5e|61|1 81,0,0,0,0,0,0,0,0,0,0,0,0,0,0,81,
scooby_state_400dfd|37|1 81,0,0,0,0,0,0,0,0,0,0,0,0,0,0,81,
scooby_state_400e13|37|1 81,0,0,0,0,0,0,0,0,0,0,0,0,0,0,81,
scooby_state_400e13|30|1 81,0,0,0,0,0,0,0,0,0,0,0,0,0,0,81,
scooby_state_400e13|33|1 81,0,0,0,0,0,0,0,0,0,0,0,0,0,0,81,
scooby_state_400e13|15|1 81,0,0,0,0,0,0,0,0,0,0,0,0,0,0,81,
scooby_state_400e5e|45|1 81,0,0,0,0,0,0,0,0,0,0,0,0,0,0,81,
scooby_state_400e5e|34|1 81,0,0,0,0,0,0,0,0,0,0,0,0,0,0,81,
scooby_state_400e13|12|1 81,0,0,0,0,0,0,0,0,0,0,0,0,0,0,81,
scooby_state_400e5e|53|1 81,0,0,0,0,0,0,0,0,0,0,0,0,0,0,81,
scooby_state_400e13|21|1 81,0,0,0,0,0,0,0,0,0,0,0,0,0,0,81,
scooby_state_400e13|34|1 81,0,0,0,0,0,0,0,0,0,0,0,0,0,0,81,
scooby_state_400e13|2|1 81,0,0,0,0,0,0,0,0,0,0,0,0,0,0,81,
scooby_state_400e5e|25|1 81,0,0,0,0,0,0,0,0,0,0,0,0,0,0,81,
scooby_state_400e13|19|1 81,0,0,0,0,0,0,0,0,0,0,0,0,0,0,81,
scooby_state_400e5e|31|1 80,0,0,0,0,0,0,0,0,0,0,1,0,0,0,81,
scooby_state_400e13|1|1 81,0,0,0,0,0,0,0,0,0,0,0,0,0,0,81,
scooby_state_400e13|20|1 81,0,0,0,0,0,0,0,0,0,0,0,0,0,0,81,
scooby_state_400e13|23|1 81,0,0,0,0,0,0,0,0,0,0,0,0,0,0,81,
scooby_state_400e5e|55|1 80,0,1,0,0,0,0,0,0,0,0,0,0,0,0,81,
scooby_state_400dfd|9|1 81,0,0,0,0,0,0,0,0,0,0,0,0,0,0,81,
scooby_state_400e5e|24|1 81,0,0,0,0,0,0,0,0,0,0,0,0,0,0,81,
scooby_state_400e5e|58|1 81,0,0,0,0,0,0,0,0,0,0,0,0,0,0,81,
scooby_state_400e13|26|1 81,0,0,0,0,0,0,0,0,0,0,0,0,0,0,81,
scooby_state_400e13|29|1 81,0,0,0,0,0,0,0,0,0,0,0,0,0,0,81,
scooby_state_400e13|39|1 81,0,0,0,0,0,0,0,0,0,0,0,0,0,0,81,
scooby_state_400e13|38|1 81,0,0,0,0,0,0,0,0,0,0,0,0,0,0,81,
scooby_state_400e5e|28|1 81,0,0,0,0,0,0,0,0,0,0,0,0,0,0,81,
scooby_state_400e5e|50|1 81,0,0,0,0,0,0,0,0,0,0,0,0,0,0,81,
scooby_state_400dfd|8|1 80,0,0,0,0,0,0,1,0,0,0,0,0,0,0,81,
scooby_state_400e13|24|1 81,0,0,0,0,0,0,0,0,0,0,0,0,0,0,81,
scooby_state_400e13|35|1 80,0,0,1,0,0,0,0,0,0,0,0,0,0,0,81,
scooby_state_400e5e|60|1 81,0,0,0,0,0,0,0,0,0,0,0,0,0,0,81,
scooby_state_400e13|36|1 81,0,0,0,0,0,0,0,0,0,0,0,0,0,0,81,
scooby_state_400e13|3|1 80,0,0,0,0,0,0,1,0,0,0,0,0,0,0,81,
scooby_state_400dfd|6|1 81,0,0,0,0,0,0,0,0,0,0,0,0,0,0,81,
scooby_state_400e5e|49|1 81,0,0,0,0,0,0,0,0,0,0,0,0,0,0,81,
scooby_state_400e5e|51|1 80,0,0,0,0,0,0,0,0,0,0,0,1,0,0,81,
scooby_state_400e13|31|1 81,0,0,0,0,0,0,0,0,0,0,0,0,0,0,81,
scooby_state_400e5e|27|1 81,0,0,0,0,0,0,0,0,0,0,0,0,0,0,81,
scooby_state_400e13|32|1 81,0,0,0,0,0,0,0,0,0,0,0,0,0,0,81,
scooby_state_400e5e|46|1 81,0,0,0,0,0,0,0,0,0,0,0,0,0,0,81,
scooby_state_400e5e|29|1 81,0,0,0,0,0,0,0,0,0,0,0,0,0,0,81,
scooby_state_400dfd|38|1 80,0,0,0,0,1,0,0,0,0,0,0,0,0,0,81,
scooby_state_400e13|25|1 81,0,0,0,0,0,0,0,0,0,0,0,0,0,0,81,
scooby_state_400dfd|10|1 81,0,0,0,0,0,0,0,0,0,0,0,0,0,0,81,
scooby_state_400e5e|52|1 81,0,0,0,0,0,0,0,0,0,0,0,0,0,0,81,
scooby_state_400e5e|59|1 81,0,0,0,0,0,0,0,0,0,0,0,0,0,0,81,
scooby_state_400e5e|7|1 80,0,0,0,0,0,0,0,0,0,0,0,0,0,0,80,
scooby_state_400e5e|10|1 80,0,0,0,0,0,0,0,0,0,0,0,0,0,0,80,
scooby_state_400e44|63|1 80,0,0,0,0,0,0,0,0,0,0,0,0,0,0,80,
scooby_state_400e5e|38|1 80,0,0,0,0,0,0,0,0,0,0,0,0,0,0,80,
scooby_state_400e13|7|1 80,0,0,0,0,0,0,0,0,0,0,0,0,0,0,80,
scooby_state_400e5e|39|1 80,0,0,0,0,0,0,0,0,0,0,0,0,0,0,80,
scooby_state_400e5e|3|1 80,0,0,0,0,0,0,0,0,0,0,0,0,0,0,80,
scooby_state_400e5e|37|1 80,0,0,0,0,0,0,0,0,0,0,0,0,0,0,80,
scooby_state_400dfd|16|1 80,0,0,0,0,0,0,0,0,0,0,0,0,0,0,80,
scooby_state_400dfd|13|1 80,0,0,0,0,0,0,0,0,0,0,0,0,0,0,80,
scooby_state_400e5e|8|1 80,0,0,0,0,0,0,0,0,0,0,0,0,0,0,80,
scooby_state_400e5e|2|1 80,0,0,0,0,0,0,0,0,0,0,0,0,0,0,80,
scooby_state_400e5e|6|1 80,0,0,0,0,0,0,0,0,0,0,0,0,0,0,80,
scooby_state_400e13|9|1 80,0,0,0,0,0,0,0,0,0,0,0,0,0,0,80,
scooby_state_400e13|10|1 80,0,0,0,0,0,0,0,0,0,0,0,0,0,0,80,
scooby_state_400e5e|41|1 80,0,0,0,0,0,0,0,0,0,0,0,0,0,0,80,
scooby_state_400e13|53|1 80,0,0,0,0,0,0,0,0,0,0,0,0,0,0,80,
scooby_state_400e5e|4|1 80,0,0,0,0,0,0,0,0,0,0,0,0,0,0,80,
scooby_state_400e5e|40|1 80,0,0,0,0,0,0,0,0,0,0,0,0,0,0,80,
scooby_state_400e13|11|1 80,0,0,0,0,0,0,0,0,0,0,0,0,0,0,80,
scooby_state_400e13|50|1 80,0,0,0,0,0,0,0,0,0,0,0,0,0,0,80,
scooby_state_400e13|62|1 80,0,0,0,0,0,0,0,0,0,0,0,0,0,0,80,
scooby_state_400dfd|22|1 79,0,0,0,1,0,0,0,0,0,0,0,0,0,0,80,
scooby_state_400e20|62|-1 80,0,0,0,0,0,0,0,0,0,0,0,0,0,0,80,
scooby_state_400dfd|7|1 80,0,0,0,0,0,0,0,0,0,0,0,0,0,0,80,
scooby_state_400e13|47|1 78,0,0,0,1,0,0,0,0,1,0,0,0,0,0,80,
scooby_state_400dfd|20|1 80,0,0,0,0,0,0,0,0,0,0,0,0,0,0,80,
scooby_state_400dfd|24|1 80,0,0,0,0,0,0,0,0,0,0,0,0,0,0,80,
scooby_state_400e13|48|1 80,0,0,0,0,0,0,0,0,0,0,0,0,0,0,80,
scooby_state_400e13|54|1 80,0,0,0,0,0,0,0,0,0,0,0,0,0,0,80,
scooby_state_400e13|49|1 80,0,0,0,0,0,0,0,0,0,0,0,0,0,0,80,
scooby_state_400e13|51|1 80,0,0,0,0,0,0,0,0,0,0,0,0,0,0,80,
scooby_state_400e13|4|1 80,0,0,0,0,0,0,0,0,0,0,0,0,0,0,80,
scooby_state_400e44|61|1 80,0,0,0,0,0,0,0,0,0,0,0,0,0,0,80,
scooby_state_400e5e|35|1 80,0,0,0,0,0,0,0,0,0,0,0,0,0,0,80,
scooby_state_400dfd|21|1 80,0,0,0,0,0,0,0,0,0,0,0,0,0,0,80,
scooby_state_400dfd|36|1 79,0,0,0,1,0,0,0,0,0,0,0,0,0,0,80,
scooby_state_400e13|55|1 80,0,0,0,0,0,0,0,0,0,0,0,0,0,0,80,
scooby_state_400e5e|42|1 79,0,0,0,0,0,0,1,0,0,0,0,0,0,0,80,
scooby_state_400e13|59|1 79,0,0,0,0,0,0,0,0,0,0,0,1,0,0,80,
scooby_state_400e13|63|1 79,0,0,0,0,0,1,0,0,0,0,0,0,0,0,80,
scooby_state_400e44|57|1 80,0,0,0,0,0,0,0,0,0,0,0,0,0,0,80,
scooby_state_400dfd|26|1 80,0,0,0,0,0,0,0,0,0,0,0,0,0,0,80,
scooby_state_400e44|59|1 80,0,0,0,0,0,0,0,0,0,0,0,0,0,0,80,
scooby_state_400e13|60|1 80,0,0,0,0,0,0,0,0,0,0,0,0,0,0,80,
scooby_state_400dfd|25|1 80,0,0,0,0,0,0,0,0,0,0,0,0,0,0,80,
scooby_state_400e5e|11|1 80,0,0,0,0,0,0,0,0,0,0,0,0,0,0,80,
scooby_state_400dfd|27|1 80,0,0,0,0,0,0,0,0,0,0,0,0,0,0,80,
scooby_state_400e5e|1|1 80,0,0,0,0,0,0,0,0,0,0,0,0,0,0,80,
scooby_state_400e5e|9|1 79,0,0,0,0,0,0,0,0,0,0,0,0,0,1,80,
scooby_state_400dfd|19|1 80,0,0,0,0,0,0,0,0,0,0,0,0,0,0,80,
scooby_state_400e13|6|1 80,0,0,0,0,0,0,0,0,0,0,0,0,0,0,80,
scooby_state_400e13|5|1 80,0,0,0,0,0,0,0,0,0,0,0,0,0,0,80,
scooby_state_400e44|55|1 80,0,0,0,0,0,0,0,0,0,0,0,0,0,0,80,
scooby_state_400e5e|5|1 80,0,0,0,0,0,0,0,0,0,0,0,0,0,0,80,
scooby_state_400dfd|14|1 80,0,0,0,0,0,0,0,0,0,0,0,0,0,0,80,
scooby_state_400e13|52|1 80,0,0,0,0,0,0,0,0,0,0,0,0,0,0,80,
scooby_state_400dfd|15|1 80,0,0,0,0,0,0,0,0,0,0,0,0,0,0,80,
scooby_state_400e13|8|1 79,0,0,0,0,0,1,0,0,0,0,0,0,0,0,80,
scooby_state_400e5e|43|1 80,0,0,0,0,0,0,0,0,0,0,0,0,0,0,80,
scooby_state_400e13|58|1 80,0,0,0,0,0,0,0,0,0,0,0,0,0,0,80,
scooby_state_400e13|61|1 80,0,0,0,0,0,0,0,0,0,0,0,0,0,0,80,
scooby_state_400e44|58|1 80,0,0,0,0,0,0,0,0,0,0,0,0,0,0,80,
scooby_state_400e44|56|1 80,0,0,0,0,0,0,0,0,0,0,0,0,0,0,80,
scooby_state_400dfd|17|1 80,0,0,0,0,0,0,0,0,0,0,0,0,0,0,80,
scooby_state_400e5e|36|1 80,0,0,0,0,0,0,0,0,0,0,0,0,0,0,80,
scooby_state_400dfd|34|1 79,0,0,0,0,0,0,0,0,0,0,0,0,0,0,79,
scooby_state_400e44|46|1 79,0,0,0,0,0,0,0,0,0,0,0,0,0,0,79,
scooby_state_400e44|5|-41 79,0,0,0,0,0,0,0,0,0,0,0,0,0,0,79,
scooby_state_400e44|60|1 79,0,0,0,0,0,0,0,0,0,0,0,0,0,0,79,
scooby_state_400e5e|19|1 79,0,0,0,0,0,0,0,0,0,0,0,0,0,0,79,
scooby_state_400e44|54|1 79,0,0,0,0,0,0,0,0,0,0,0,0,0,0,79,
scooby_state_400e5e|12|1 79,0,0,0,0,0,0,0,0,0,0,0,0,0,0,79,
scooby_state_400e44|51|1 79,0,0,0,0,0,0,0,0,0,0,0,0,0,0,79,
scooby_state_400e44|62|1 79,0,0,0,0,0,0,0,0,0,0,0,0,0,0,79,
scooby_state_400e44|52|1 78,0,0,0,0,0,0,0,0,0,0,0,0,1,0,79,
scooby_state_400e5e|14|1 79,0,0,0,0,0,0,0,0,0,0,0,0,0,0,79,
scooby_state_400e44|50|1 79,0,0,0,0,0,0,0,0,0,0,0,0,0,0,79,
scooby_state_400e5e|23|1 79,0,0,0,0,0,0,0,0,0,0,0,0,0,0,79,
scooby_state_400e13|41|1 79,0,0,0,0,0,0,0,0,0,0,0,0,0,0,79,
scooby_state_400e5e|15|1 79,0,0,0,0,0,0,0,0,0,0,0,0,0,0,79,
scooby_state_400dfd|35|1 79,0,0,0,0,0,0,0,0,0,0,0,0,0,0,79,
scooby_state_400dfd|28|1 79,0,0,0,0,0,0,0,0,0,0,0,0,0,0,79,
scooby_state_400e44|53|1 79,0,0,0,0,0,0,0,0,0,0,0,0,0,0,79,
scooby_state_400e5e|13|1 79,0,0,0,0,0,0,0,0,0,0,0,0,0,0,79,
scooby_state_400e13|46|1 78,0,0,0,0,1,0,0,0,0,0,0,0,0,0,79,
scooby_state_400e13|42|1 78,0,0,0,0,0,0,1,0,0,0,0,0,0,0,79,
scooby_state_400e5e|18|1 79,0,0,0,0,0,0,0,0,0,0,0,0,0,0,79,
scooby_state_400e5e|17|1 79,0,0,0,0,0,0,0,0,0,0,0,0,0,0,79,
scooby_state_400e13|45|1 79,0,0,0,0,0,0,0,0,0,0,0,0,0,0,79,
scooby_state_400dfd|31|1 79,0,0,0,0,0,0,0,0,0,0,0,0,0,0,79,
scooby_state_400dfd|32|1 77,0,0,0,0,0,0,1,0,0,0,0,0,1,0,79,
scooby_state_400e5e|20|1 78,0,0,0,1,0,0,0,0,0,0,0,0,0,0,79,
scooby_state_400dfd|29|1 77,0,0,0,0,1,0,0,1,0,0,0,0,0,0,79,
scooby_state_400e44|9|-41 79,0,0,0,0,0,0,0,0,0,0,0,0,0,0,79,
scooby_state_400dfd|33|1 79,0,0,0,0,0,0,0,0,0,0,0,0,0,0,79,
scooby_state_400e5e|16|1 79,0,0,0,0,0,0,0,0,0,0,0,0,0,0,79,
scooby_state_400dfd|18|1 79,0,0,0,0,0,0,0,0,0,0,0,0,0,0,79,
scooby_state_400e44|21|-41 79,0,0,0,0,0,0,0,0,0,0,0,0,0,0,79,
scooby_state_400e5e|21|1 79,0,0,0,0,0,0,0,0,0,0,0,0,0,0,79,
scooby_state_400e44|29|1 79,0,0,0,0,0,0,0,0,0,0,0,0,0,0,79,
scooby_state_400e44|6|-41 79,0,0,0,0,0,0,0,0,0,0,0,0,0,0,79,
scooby_state_400dfd|23|1 78,0,0,1,0,0,0,0,0,0,0,0,0,0,0,79,
scooby_state_400e13|43|1 79,0,0,0,0,0,0,0,0,0,0,0,0,0,0,79,
scooby_state_400e44|10|-41 79,0,0,0,0,0,0,0,0,0,0,0,0,0,0,79,
scooby_state_400e13|44|1 78,0,0,0,0,0,0,0,1,0,0,0,0,0,0,79,
scooby_state_400e5e|22|1 79,0,0,0,0,0,0,0,0,0,0,0,0,0,0,79,
scooby_state_400e44|20|-41 78,0,0,0,0,0,0,0,0,0,0,0,0,0,0,78,
scooby_state_400e20|60|0 78,0,0,0,0,0,0,0,0,0,0,0,0,0,0,78,
scooby_state_400e44|41|1 78,0,0,0,0,0,0,0,0,0,0,0,0,0,0,78,
scooby_state_400e5e|0|0 77,0,1,0,0,0,0,0,0,0,0,0,0,0,0,78,
scooby_state_400e44|44|1 78,0,0,0,0,0,0,0,0,0,0,0,0,0,0,78,
scooby_state_400e44|22|-41 78,0,0,0,0,0,0,0,0,0,0,0,0,0,0,78,
scooby_state_400e44|49|1 78,0,0,0,0,0,0,0,0,0,0,0,0,0,0,78,
scooby_state_400e44|24|1 78,0,0,0,0,0,0,0,0,0,0,0,0,0,0,78,
scooby_state_400e44|12|-41 78,0,0,0,0,0,0,0,0,0,0,0,0,0,0,78,
scooby_state_400e44|4|-41 78,0,0,0,0,0,0,0,0,0,0,0,0,0,0,78,
scooby_state_400e44|7|-41 78,0,0,0,0,0,0,0,0,0,0,0,0,0,0,78,
scooby_state_400e44|1|-41 78,0,0,0,0,0,0,0,0,0,0,0,0,0,0,78,
scooby_state_400dfd|30|1 78,0,0,0,0,0,0,0,0,0,0,0,0,0,0,78,
scooby_state_400e44|0|-41 78,0,0,0,0,0,0,0,0,0,0,0,0,0,0,78,
scooby_state_400e44|45|1 78,0,0,0,0,0,0,0,0,0,0,0,0,0,0,78,
scooby_state_400e44|35|1 78,0,0,0,0,0,0,0,0,0,0,0,0,0,0,78,
scooby_state_400e44|47|1 78,0,0,0,0,0,0,0,0,0,0,0,0,0,0,78,
scooby_state_400e44|40|1 77,0,0,0,0,0,0,0,0,0,0,0,0,1,0,78,
scooby_state_400e2c|49|0 78,0,0,0,0,0,0,0,0,0,0,0,0,0,0,78,
scooby_state_400e44|48|1 78,0,0,0,0,0,0,0,0,0,0,0,0,0,0,78,
scooby_state_400e44|26|1 78,0,0,0,0,0,0,0,0,0,0,0,0,0,0,78,
scooby_state_400e44|34|1 78,0,0,0,0,0,0,0,0,0,0,0,0,0,0,78,
scooby_state_400e44|39|1 78,0,0,0,0,0,0,0,0,0,0,0,0,0,0,78,
scooby_state_400e44|27|1 78,0,0,0,0,0,0,0,0,0,0,0,0,0,0,78,
scooby_state_400e44|37|1 77,0,0,0,0,0,0,0,0,0,0,0,0,0,0,77,
scooby_state_400de5|47|42 77,0,0,0,0,0,0,0,0,0,0,0,0,0,0,77,
scooby_state_400de5|63|42 76,0,0,0,0,0,0,0,0,0,1,0,0,0,0,77,
scooby_state_400e44|19|-41 77,0,0,0,0,0,0,0,0,0,0,0,0,0,0,77,
scooby_state_400e44|25|1 77,0,0,0,0,0,0,0,0,0,0,0,0,0,0,77,
scooby_state_400e44|30|1 77,0,0,0,0,0,0,0,0,0,0,0,0,0,0,77,
scooby_state_400e44|3|-41 76,0,0,0,0,0,0,0,0,0,0,0,0,0,1,77,
scooby_state_400e44|31|1 77,0,0,0,0,0,0,0,0,0,0,0,0,0,0,77,
scooby_state_400e44|8|-41 77,0,0,0,0,0,0,0,0,0,0,0,0,0,0,77,
scooby_state_400de5|51|42 77,0,0,0,0,0,0,0,0,0,0,0,0,0,0,77,
scooby_state_400e44|17|-41 77,0,0,0,0,0,0,0,0,0,0,0,0,0,0,77,
scooby_state_400e44|14|-41 77,0,0,0,0,0,0,0,0,0,0,0,0,0,0,77,
scooby_state_400e44|28|1 77,0,0,0,0,0,0,0,0,0,0,0,0,0,0,77,
scooby_state_400e44|32|1 77,0,0,0,0,0,0,0,0,0,0,0,0,0,0,77,
scooby_state_400e44|36|1 77,0,0,0,0,0,0,0,0,0,0,0,0,0,0,77,
scooby_state_400e44|2|-41 76,0,1,0,0,0,0,0,0,0,0,0,0,0,0,77,
scooby_state_400e44|15|-41 77,0,0,0,0,0,0,0,0,0,0,0,0,0,0,77,
scooby_state_400de5|48|42 77,0,0,0,0,0,0,0,0,0,0,0,0,0,0,77,
scooby_state_400e44|33|1 77,0,0,0,0,0,0,0,0,0,0,0,0,0,0,77,
scooby_state_400e44|16|-41 77,0,0,0,0,0,0,0,0,0,0,0,0,0,0,77,
scooby_state_400e44|18|-41 77,0,0,0,0,0,0,0,0,0,0,0,0,0,0,77,
scooby_state_400e44|38|1 77,0,0,0,0,0,0,0,0,0,0,0,0,0,0,77,
scooby_state_400de5|46|42 77,0,0,0,0,0,0,0,0,0,0,0,0,0,0,77,
scooby_state_400e44|42|1 76,0,0,0,0,0,0,0,0,0,0,0,0,0,0,76,
scooby_state_400de5|50|42 76,0,0,0,0,0,0,0,0,0,0,0,0,0,0,76,
scooby_state_400de5|62|42 76,0,0,0,0,0,0,0,0,0,0,0,0,0,0,76,
scooby_state_400e44|43|1 76,0,0,0,0,0,0,0,0,0,0,0,0,0,0,76,
scooby_state_400e51|50|0 76,0,0,0,0,0,0,0,0,0,0,0,0,0,0,76,
scooby_state_400de5|43|42 76,0,0,0,0,0,0,0,0,0,0,0,0,0,0,76,
scooby_state_400de5|42|42 76,0,0,0,0,0,0,0,0,0,0,0,0,0,0,76,
scooby_state_400de5|49|42 75,0,0,0,0,0,0,0,0,0,0,1,0,0,0,76,
scooby_state_400dfd|54|40 75,0,0,0,0,0,0,0,0,0,0,1,0,0,0,76,
scooby_state_400de5|58|42 76,0,0,0,0,0,0,0,0,0,0,0,0,0,0,76,
scooby_state_400de5|59|42 75,0,0,1,0,0,0,0,0,0,0,0,0,0,0,76,
scooby_state_400de5|54|42 76,0,0,0,0,0,0,0,0,0,0,0,0,0,0,76,
scooby_state_400de5|44|42 76,0,0,0,0,0,0,0,0,0,0,0,0,0,0,76,
scooby_state_400e44|23|1 76,0,0,0,0,0,0,0,0,0,0,0,0,0,0,76,
scooby_state_400de5|45|42 76,0,0,0,0,0,0,0,0,0,0,0,0,0,0,76,
scooby_state_400de5|56|42 75,0,0,0,0,0,0,0,0,0,0,0,0,0,0,75,
scooby_state_400e44|13|-41 75,0,0,0,0,0,0,0,0,0,0,0,0,0,0,75,
scooby_state_400de5|52|2 75,0,0,0,0,0,0,0,0,0,0,0,0,0,0,75,
scooby_state_400de5|57|42 74,0,0,0,0,0,0,0,0,0,0,0,0,1,0,75,
scooby_state_400de5|61|42 75,0,0,0,0,0,0,0,0,0,0,0,0,0,0,75,
scooby_state_400e20|49|0 75,0,0,0,0,0,0,0,0,0,0,0,0,0,0,75,
scooby_state_400de5|60|42 74,0,0,0,0,0,0,0,0,0,0,0,0,0,0,74,
scooby_state_400de5|55|42 73,0,0,0,0,0,1,0,0,0,0,0,0,0,0,74,
scooby_state_400dc0|62|-1 73,0,0,0,0,0,0,0,0,0,0,0,0,0,0,73,
scooby_state_400dc0|51|0 73,0,0,0,0,0,0,0,0,0,0,0,0,0,0,73,
scooby_state_400f0d|62|0 71,0,0,0,0,0,0,0,0,0,0,0,0,0,0,71,
scooby_state_400e5e|63|0 70,0,0,0,0,0,0,0,0,0,0,0,0,0,0,70,
scooby_state_400dda|63|0 70,0,0,0,0,0,0,0,0,0,0,0,0,0,0,70,
scooby_state_400e74|55|0 69,0,0,0,0,0,0,0,0,0,0,0,0,0,0,69,
scooby_state_400e38|63|0 69,0,0,0,0,0,0,0,0,0,0,0,0,0,0,69,
scooby_state_400dda|62|-1 69,0,0,0,0,0,0,0,0,0,0,0,0,0,0,69,
scooby_state_400dfd|54|0 68,0,0,0,0,0,0,0,0,0,0,0,0,0,0,68,
scooby_state_400e13|55|0 67,0,0,0,0,0,0,0,0,0,0,0,0,0,0,67,
scooby_state_400e66|51|0 67,0,0,0,0,0,0,0,0,0,0,0,0,0,0,67,
scooby_state_400dfd|49|40 66,0,0,0,0,0,0,0,0,0,0,0,0,0,0,66,
scooby_state_400dfd|44|40 66,0,0,0,0,0,0,0,0,0,0,0,0,0,0,66,
scooby_state_400de5|24|-39 65,0,0,0,0,0,0,0,0,0,0,0,0,0,0,65,
scooby_state_400dfd|60|40 65,0,0,0,0,0,0,0,0,0,0,0,0,0,0,65,
scooby_state_400dda|54|0 65,0,0,0,0,0,0,0,0,0,0,0,0,0,0,65,
scooby_state_400dfd|45|40 65,0,0,0,0,0,0,0,0,0,0,0,0,0,0,65,
scooby_state_400dfd|55|40 65,0,0,0,0,0,0,0,0,0,0,0,0,0,0,65,
scooby_state_400dfd|48|40 65,0,0,0,0,0,0,0,0,0,0,0,0,0,0,65,
scooby_state_400dfd|63|40 65,0,0,0,0,0,0,0,0,0,0,0,0,0,0,65,
scooby_state_400dfd|50|40 65,0,0,0,0,0,0,0,0,0,0,0,0,0,0,65,
scooby_state_400e20|50|0 64,0,0,0,0,0,0,0,0,0,0,0,0,0,0,64,
scooby_state_400dfd|40|40 63,0,0,0,0,0,0,0,0,0,0,0,0,1,0,64,
scooby_state_400dda|60|0 64,0,0,0,0,0,0,0,0,0,0,0,0,0,0,64,
scooby_state_400de5|0|-39 64,0,0,0,0,0,0,0,0,0,0,0,0,0,0,64,
scooby_state_400dfd|53|40 63,0,0,0,0,0,0,0,0,0,0,0,0,0,0,63,
scooby_state_400dfd|43|40 63,0,0,0,0,0,0,0,0,0,0,0,0,0,0,63,
scooby_state_400d1d|61|0 63,0,0,0,0,0,0,0,0,0,0,0,0,0,0,63,
scooby_state_400dfd|58|40 63,0,0,0,0,0,0,0,0,0,0,0,0,0,0,63,
scooby_state_400dfd|52|40 62,0,0,0,0,0,0,0,0,0,0,0,0,0,0,62,
scooby_state_400e51|60|0 61,0,0,0,0,0,0,0,0,0,1,0,0,0,0,62,
scooby_state_400e38|54|0 62,0,0,0,0,0,0,0,0,0,0,0,0,0,0,62,
scooby_state_400dfd|61|40 61,0,0,0,0,0,0,0,0,0,0,0,0,0,0,61,
scooby_state_400f08|52|1 61,0,0,0,0,0,0,0,0,0,0,0,0,0,0,61,
scooby_state_400dfd|57|40 61,0,0,0,0,0,0,0,0,0,0,0,0,0,0,61,
scooby_state_400e2c|50|0 61,0,0,0,0,0,0,0,0,0,0,0,0,0,0,61,
scooby_state_400e13|55|-1 61,0,0,0,0,0,0,0,0,0,0,0,0,0,0,61,
scooby_state_400dfd|47|40 61,0,0,0,0,0,0,0,0,0,0,0,0,0,0,61,
scooby_state_400dfd|59|40 61,0,0,0,0,0,0,0,0,0,0,0,0,0,0,61,
scooby_state_400dfd|51|40 61,0,0,0,0,0,0,0,0,0,0,0,0,0,0,61,
scooby_state_400dfd|62|40 61,0,0,0,0,0,0,0,0,0,0,0,0,0,0,61,
scooby_state_400de5|15|-39 61,0,0,0,0,0,0,0,0,0,0,0,0,0,0,61,
scooby_state_400dfd|56|40 60,0,0,0,0,0,0,0,0,0,0,0,0,0,0,60,
scooby_state_400dfd|42|40 59,0,0,0,0,0,0,0,0,0,0,0,0,0,0,59,
scooby_state_400dfd|46|40 59,0,0,0,0,0,0,0,0,0,0,0,0,0,0,59,
scooby_state_400e38|62|-1 59,0,0,0,0,0,0,0,0,0,0,0,0,0,0,59,
scooby_state_400e51|54|0 59,0,0,0,0,0,0,0,0,0,0,0,0,0,0,59,
scooby_state_400dfd|41|40 59,0,0,0,0,0,0,0,0,0,0,0,0,0,0,59,
scooby_state_400e51|63|0 59,0,0,0,0,0,0,0,0,0,0,0,0,0,0,59,
scooby_state_400dc0|56|0 58,0,0,0,0,0,0,0,0,0,0,0,0,0,0,58,
scooby_state_400dda|62|0 57,0,0,0,0,0,0,0,0,0,0,0,0,0,0,57,
scooby_state_400e38|49|0 56,0,0,0,0,0,0,0,0,0,0,0,0,0,0,56,
scooby_state_400e44|11|-41 56,0,0,0,0,0,0,0,0,0,0,0,0,0,0,56,
scooby_state_400e20|50|-1 55,0,0,0,0,0,0,0,0,0,0,0,0,0,0,55,
scooby_state_400e13|57|1 55,0,0,0,0,0,0,0,0,0,0,0,0,0,0,55,
scooby_state_400dda|50|-1 52,0,0,0,0,0,0,0,1,0,0,0,0,0,1,54,
scooby_state_400df3|62|-1 54,0,0,0,0,0,0,0,0,0,0,0,0,0,0,54,
scooby_state_400de5|4|-39 54,0,0,0,0,0,0,0,0,0,0,0,0,0,0,54,
scooby_state_400e13|56|0 54,0,0,0,0,0,0,0,0,0,0,0,0,0,0,54,
scooby_state_400e74|55|-1 53,0,0,0,0,0,0,0,0,0,0,0,0,0,0,53,
scooby_state_400dc0|61|0 53,0,0,0,0,0,0,0,0,0,0,0,0,0,0,53,
scooby_state_400dda|49|0 53,0,0,0,0,0,0,0,0,0,0,0,0,0,0,53,
scooby_state_400dda|50|0 53,0,0,0,0,0,0,0,0,0,0,0,0,0,0,53,
scooby_state_400e51|62|0 52,0,0,0,0,0,0,0,0,0,0,0,0,0,0,52,
scooby_state_400e38|62|0 52,0,0,0,0,0,0,0,0,0,0,0,0,0,0,52,
scooby_state_400e5e|62|-1 52,0,0,0,0,0,0,0,0,0,0,0,0,0,0,52,
scooby_state_400de5|10|-39 51,0,0,0,0,0,0,0,0,0,0,0,0,0,0,51,
scooby_state_400dda|56|0 51,0,0,0,0,0,0,0,0,0,0,0,0,0,0,51,
scooby_state_400de5|5|-39 51,0,0,0,0,0,0,0,0,0,0,0,0,0,0,51,
scooby_state_400d59|62|-1 50,0,0,0,0,0,0,0,0,0,0,0,0,0,0,50,
scooby_state_400de5|11|-39 49,0,0,0,0,0,0,0,1,0,0,0,0,0,0,50,
scooby_state_400ef0|53|1 50,0,0,0,0,0,0,0,0,0,0,0,0,0,0,50,
scooby_state_400de5|21|-39 50,0,0,0,0,0,0,0,0,0,0,0,0,0,0,50,
scooby_state_400de5|9|-39 50,0,0,0,0,0,0,0,0,0,0,0,0,0,0,50,
scooby_state_400de5|23|-39 49,0,0,0,0,0,0,0,0,0,0,0,0,0,0,49,
scooby_state_400de5|14|-39 49,0,0,0,0,0,0,0,0,0,0,0,0,0,0,49,
scooby_state_400dda|55|0 49,0,0,0,0,0,0,0,0,0,0,0,0,0,0,49,
scooby_state_400de5|16|-39 49,0,0,0,0,0,0,0,0,0,0,0,0,0,0,49,
scooby_state_400de5|20|-39 49,0,0,0,0,0,0,0,0,0,0,0,0,0,0,49,
scooby_state_400e20|51|0 48,0,0,0,0,0,0,0,0,0,0,0,0,0,0,48,
scooby_state_400e38|60|0 48,0,0,0,0,0,0,0,0,0,0,0,0,0,0,48,
scooby_state_400de5|8|-39 48,0,0,0,0,0,0,0,0,0,0,0,0,0,0,48,
scooby_state_400e20|56|0 48,0,0,0,0,0,0,0,0,0,0,0,0,0,0,48,
scooby_state_400de5|1|-39 48,0,0,0,0,0,0,0,0,0,0,0,0,0,0,48,
scooby_state_400e20|55|-1 48,0,0,0,0,0,0,0,0,0,0,0,0,0,0,48,
scooby_state_400de5|13|-39 48,0,0,0,0,0,0,0,0,0,0,0,0,0,0,48,
scooby_state_400de5|17|-39 48,0,0,0,0,0,0,0,0,0,0,0,0,0,0,48,
scooby_state_400de5|6|-39 48,0,0,0,0,0,0,0,0,0,0,0,0,0,0,48,
scooby_state_400de5|18|-39 48,0,0,0,0,0,0,0,0,0,0,0,0,0,0,48,
scooby_state_400e51|49|0 47,0,0,0,0,0,0,0,0,0,0,0,0,0,0,47,
scooby_state_400e38|50|0 47,0,0,0,0,0,0,0,0,0,0,0,0,0,0,47,
scooby_state_400df3|54|0 47,0,0,0,0,0,0,0,0,0,0,0,0,0,0,47,
scooby_state_400e38|51|0 47,0,0,0,0,0,0,0,0,0,0,0,0,0,0,47,
scooby_state_400d59|62|8 46,0,0,0,0,0,0,0,0,0,0,0,0,0,0,46,
scooby_state_400df3|62|0 46,0,0,0,0,0,0,0,0,0,0,0,0,0,0,46,
scooby_state_400de5|19|-39 46,0,0,0,0,0,0,0,0,0,0,0,0,0,0,46,
scooby_state_400de5|3|-39 46,0,0,0,0,0,0,0,0,0,0,0,0,0,0,46,
scooby_state_400e09|54|0 46,0,0,0,0,0,0,0,0,0,0,0,0,0,0,46,
scooby_state_400de5|22|-39 44,0,0,0,0,0,1,0,0,0,0,0,0,0,0,45,
scooby_state_400df3|63|0 45,0,0,0,0,0,0,0,0,0,0,0,0,0,0,45,
scooby_state_400de5|12|-39 45,0,0,0,0,0,0,0,0,0,0,0,0,0,0,45,
scooby_state_400dda|51|0 44,0,0,0,0,0,0,0,0,0,0,0,0,0,0,44,
scooby_state_400ed8|54|1 43,1,0,0,0,0,0,0,0,0,0,0,0,0,0,44,
scooby_state_400e20|55|0 44,0,0,0,0,0,0,0,0,0,0,0,0,0,0,44,
scooby_state_400ec7|54|0 43,0,0,0,0,0,0,0,0,0,0,0,0,0,0,43,
scooby_state_400e09|62|-1 42,0,0,0,0,0,0,0,0,0,0,0,0,0,0,42,
scooby_state_400e51|50|-1 42,0,0,0,0,0,0,0,0,0,0,0,0,0,0,42,
scooby_state_400de5|7|-39 41,0,0,0,0,0,0,0,0,0,0,0,0,0,0,41,
scooby_state_400e51|62|-1 41,0,0,0,0,0,0,0,0,0,0,0,0,0,0,41,
scooby_state_400df3|50|0 41,0,0,0,0,0,0,0,0,0,0,0,0,0,0,41,
scooby_state_400de5|2|-39 41,0,0,0,0,0,0,0,0,0,0,0,0,0,0,41,
scooby_state_400e2c|50|40 40,0,0,0,0,0,0,0,0,0,0,0,0,0,0,40,
scooby_state_400de5|53|42 39,0,0,0,0,0,0,0,0,0,0,0,0,0,0,39,
scooby_state_400e09|50|0 39,0,0,0,0,0,0,0,0,0,0,0,0,0,0,39,
scooby_state_400e51|55|0 37,0,0,0,0,1,0,0,0,0,0,0,0,0,0,38,
scooby_state_400e09|63|0 37,0,0,0,0,0,0,0,0,0,0,0,0,0,0,37,
scooby_state_400dda|61|0 36,0,0,0,0,0,0,1,0,0,0,0,0,0,0,37,
scooby_state_400e38|50|-1 37,0,0,0,0,0,0,0,0,0,0,0,0,0,0,37,
scooby_state_400e20|49|-2 36,0,0,0,0,0,0,0,0,0,0,0,0,0,0,36,
scooby_state_400e20|52|3 36,0,0,0,0,0,0,0,0,0,0,0,0,0,0,36,
scooby_state_400e51|55|-1 36,0,0,0,0,0,0,0,0,0,0,0,0,0,0,36,
scooby_state_400e5e|62|0 35,0,0,0,0,0,0,0,0,0,0,0,0,0,0,35,
scooby_state_400e51|56|0 34,0,0,0,0,0,0,0,0,0,0,0,0,0,0,34,
scooby_state_400dda|54|3 34,0,0,0,0,0,0,0,0,0,0,0,0,0,0,34,
scooby_state_400e09|62|0 34,0,0,0,0,0,0,0,0,0,0,0,0,0,0,34,
scooby_state_400e09|49|0 32,0,0,0,0,0,0,1,0,0,0,0,0,0,0,33,
scooby_state_400e5e|61|-1 33,0,0,0,0,0,0,0,0,0,0,0,0,0,0,33,
scooby_state_400df3|51|0 33,0,0,0,0,0,0,0,0,0,0,0,0,0,0,33,
scooby_state_400df3|55|0 33,0,0,0,0,0,0,0,0,0,0,0,0,0,0,33,
scooby_state_400e20|60|-2 32,0,0,0,0,0,0,0,0,0,0,0,0,0,0,32,
scooby_state_400dda|52|3 32,0,0,0,0,0,0,0,0,0,0,0,0,0,0,32,
scooby_state_400e74|55|-5 32,0,0,0,0,0,0,0,0,0,0,0,0,0,0,32,
scooby_state_400df3|49|0 32,0,0,0,0,0,0,0,0,0,0,0,0,0,0,32,
scooby_state_400dda|49|-2 32,0,0,0,0,0,0,0,0,0,0,0,0,0,0,32,
scooby_state_400df3|60|0 31,0,0,0,1,0,0,0,0,0,0,0,0,0,0,32,
scooby_state_400df3|50|-1 31,1,0,0,0,0,0,0,0,0,0,0,0,0,0,32,
scooby_state_400e38|56|0 32,0,0,0,0,0,0,0,0,0,0,0,0,0,0,32,
scooby_state_400ef0|53|-1 31,0,0,0,0,0,0,0,0,0,0,0,0,0,0,31,
scooby_state_400e7c|60|-3 31,0,0,0,0,0,0,0,0,0,0,0,0,0,0,31,
scooby_state_400e2c|49|39 31,0,0,0,0,0,0,0,0,0,0,0,0,0,0,31,
scooby_state_400dc0|54|3 31,0,0,0,0,0,0,0,0,0,0,0,0,0,0,31,
scooby_state_400e09|60|0 30,0,0,0,0,0,0,0,0,0,1,0,0,0,0,31,
scooby_state_400dc0|56|-2 31,0,0,0,0,0,0,0,0,0,0,0,0,0,0,31,
scooby_state_400dc0|59|3 31,0,0,0,0,0,0,0,0,0,0,0,0,0,0,31,
scooby_state_400dda|55|-1 31,0,0,0,0,0,0,0,0,0,0,0,0,0,0,31,
scooby_state_400e38|55|0 30,0,0,0,0,0,0,0,0,0,0,0,0,0,0,30,
scooby_state_400d59|62|1 30,0,0,0,0,0,0,0,0,0,0,0,0,0,0,30,
scooby_state_400dc0|54|-2 30,0,0,0,0,0,0,0,0,0,0,0,0,0,0,30,
scooby_state_400d1d|61|8 30,0,0,0,0,0,0,0,0,0,0,0,0,0,0,30,
scooby_state_400dc0|57|3 30,0,0,0,0,0,0,0,0,0,0,0,0,0,0,30,
scooby_state_400e51|51|0 30,0,0,0,0,0,0,0,0,0,0,0,0,0,0,30,
scooby_state_400e20|63|3 29,0,1,0,0,0,0,0,0,0,0,0,0,0,0,30,
scooby_state_400dc0|56|2 29,0,0,0,0,0,0,0,0,0,0,0,0,0,0,29,
scooby_state_400dc0|54|-1 29,0,0,0,0,0,0,0,0,0,0,0,0,0,0,29,
scooby_state_400dc0|60|-2 29,0,0,0,0,0,0,0,0,0,0,0,0,0,0,29,
scooby_state_400e7c|60|-2 29,0,0,0,0,0,0,0,0,0,0,0,0,0,0,29,
scooby_state_400e20|54|-2 29,0,0,0,0,0,0,0,0,0,0,0,0,0,0,29,
scooby_state_400e20|59|3 29,0,0,0,0,0,0,0,0,0,0,0,0,0,0,29,
scooby_state_400e20|57|3 29,0,0,0,0,0,0,0,0,0,0,0,0,0,0,29,
scooby_state_400e20|56|-2 29,0,0,0,0,0,0,0,0,0,0,0,0,0,0,29,
scooby_state_400e2c|50|39 29,0,0,0,0,0,0,0,0,0,0,0,0,0,0,29,
scooby_state_400e2c|50|1 28,0,0,0,0,0,0,0,0,0,1,0,0,0,0,29,
scooby_state_400e09|50|-1 28,0,0,0,0,0,0,0,0,1,0,0,0,0,0,29,
scooby_state_400e20|54|3 28,0,0,0,0,0,0,0,0,0,0,0,0,0,0,28,
scooby_state_400dc0|63|3 28,0,0,0,0,0,0,0,0,0,0,0,0,0,0,28,
scooby_state_400e20|60|-1 28,0,0,0,0,0,0,0,0,0,0,0,0,0,0,28,
scooby_state_400e20|62|2 28,0,0,0,0,0,0,0,0,0,0,0,0,0,0,28,
scooby_state_400dc0|50|-2 27,0,0,0,0,0,0,0,0,0,0,0,0,0,0,27,
scooby_state_400e38|57|3 27,0,0,0,0,0,0,0,0,0,0,0,0,0,0,27,
scooby_state_400dcd|51|1 27,0,0,0,0,0,0,0,0,0,0,0,0,0,0,27,
scooby_state_400dda|59|3 27,0,0,0,0,0,0,0,0,0,0,0,0,0,0,27,
scooby_state_400dda|54|-2 27,0,0,0,0,0,0,0,0,0,0,0,0,0,0,27,
scooby_state_400dc0|58|2 27,0,0,0,0,0,0,0,0,0,0,0,0,0,0,27,
scooby_state_400dda|56|-2 27,0,0,0,0,0,0,0,0,0,0,0,0,0,0,27,
scooby_state_400e20|61|0 27,0,0,0,0,0,0,0,0,0,0,0,0,0,0,27,
scooby_state_400dda|57|3 27,0,0,0,0,0,0,0,0,0,0,0,0,0,0,27,
scooby_state_400e38|54|-2 27,0,0,0,0,0,0,0,0,0,0,0,0,0,0,27,
scooby_state_400df3|56|0 26,0,0,0,0,0,0,0,0,0,0,0,0,0,0,26,
scooby_state_400dda|54|-1 26,0,0,0,0,0,0,0,0,0,0,0,0,0,0,26,
scooby_state_400dda|56|2 26,0,0,0,0,0,0,0,0,0,0,0,0,0,0,26,
scooby_state_400e51|61|0 26,0,0,0,0,0,0,0,0,0,0,0,0,0,0,26,
scooby_state_400e38|60|-2 26,0,0,0,0,0,0,0,0,0,0,0,0,0,0,26,
scooby_state_400e09|56|0 25,0,0,0,0,0,0,0,0,0,0,0,0,0,0,25,
scooby_state_400e13|57|2 25,0,0,0,0,0,0,0,0,0,0,0,0,0,0,25,
scooby_state_400e20|50|-2 25,0,0,0,0,0,0,0,0,0,0,0,0,0,0,25,
scooby_state_400e38|55|-1 25,0,0,0,0,0,0,0,0,0,0,0,0,0,0,25,
scooby_state_400dda|60|-2 25,0,0,0,0,0,0,0,0,0,0,0,0,0,0,25,
scooby_state_400e09|51|0 25,0,0,0,0,0,0,0,0,0,0,0,0,0,0,25,
scooby_state_400dda|63|3 24,0,0,0,0,0,0,0,0,0,0,0,0,0,0,24,
scooby_state_400e20|54|-1 24,0,0,0,0,0,0,0,0,0,0,0,0,0,0,24,
scooby_state_400dc0|56|-1 24,0,0,0,0,0,0,0,0,0,0,0,0,0,0,24,
scooby_state_400dda|62|2 24,0,0,0,0,0,0,0,0,0,0,0,0,0,0,24,
scooby_state_400e38|61|0 24,0,0,0,0,0,0,0,0,0,0,0,0,0,0,24,
scooby_state_400e20|56|2 24,0,0,0,0,0,0,0,0,0,0,0,0,0,0,24,
scooby_state_400e38|63|3 24,0,0,0,0,0,0,0,0,0,0,0,0,0,0,24,
scooby_state_400e20|58|2 24,0,0,0,0,0,0,0,0,0,0,0,0,0,0,24,
scooby_state_400dda|60|-1 24,0,0,0,0,0,0,0,0,0,0,0,0,0,0,24,
scooby_state_400e20|55|-2 23,0,0,0,0,0,0,0,0,0,0,0,0,0,0,23,
scooby_state_400dda|58|2 23,0,0,0,0,0,0,0,0,0,0,0,0,0,0,23,
scooby_state_400dcd|51|0 23,0,0,0,0,0,0,0,0,0,0,0,0,0,0,23,
scooby_state_400e38|56|-2 23,0,0,0,0,0,0,0,0,0,0,0,0,0,0,23,
scooby_state_400de5|53|3 23,0,0,0,0,0,0,0,0,0,0,0,0,0,0,23,
scooby_state_400e38|59|3 23,0,0,0,0,0,0,0,0,0,0,0,0,0,0,23,
scooby_state_400e09|55|-1 22,0,0,0,0,0,0,0,0,0,0,0,0,0,0,22,
scooby_state_400e51|58|2 22,0,0,0,0,0,0,0,0,0,0,0,0,0,0,22,
scooby_state_400de5|7|1 22,0,0,0,0,0,0,0,0,0,0,0,0,0,0,22,
scooby_state_400de5|6|-40 22,0,0,0,0,0,0,0,0,0,0,0,0,0,0,22,
scooby_state_400de5|1|-40 21,0,0,0,0,0,0,0,0,0,0,0,0,0,0,21,
scooby_state_400de5|2|-40 21,0,0,0,0,0,0,0,0,0,0,0,0,0,0,21,
scooby_state_400dc0|49|-2 21,0,0,0,0,0,0,0,0,0,0,0,0,0,0,21,
scooby_state_400de5|52|1 21,0,0,0,0,0,0,0,0,0,0,0,0,0,0,21,
scooby_state_400dc0|52|3 21,0,0,0,0,0,0,0,0,0,0,0,0,0,0,21,
scooby_state_400dcd|51|-1 21,0,0,0,0,0,0,0,0,0,0,0,0,0,0,21,
scooby_state_400de5|2|1 21,0,0,0,0,0,0,0,0,0,0,0,0,0,0,21,
scooby_state_400e2c|50|-2 21,0,0,0,0,0,0,0,0,0,0,0,0,0,0,21,
scooby_state_400de5|11|-40 20,0,0,0,0,0,0,0,0,0,0,0,0,0,0,20,
scooby_state_400df3|55|-1 20,0,0,0,0,0,0,0,0,0,0,0,0,0,0,20,
scooby_state_400de5|8|1 20,0,0,0,0,0,0,0,0,0,0,0,0,0,0,20,
scooby_state_400e74|55|-6 20,0,0,0,0,0,0,0,0,0,0,0,0,0,0,20,
scooby_state_400de5|23|1 20,0,0,0,0,0,0,0,0,0,0,0,0,0,0,20,
scooby_state_400e51|51|-1 20,0,0,0,0,0,0,0,0,0,0,0,0,0,0,20,
scooby_state_400de5|16|-40 20,0,0,0,0,0,0,0,0,0,0,0,0,0,0,20,
scooby_state_400dda|50|-2 20,0,0,0,0,0,0,0,0,0,0,0,0,0,0,20,
scooby_state_400de5|3|1 20,0,0,0,0,0,0,0,0,0,0,0,0,0,0,20,
scooby_state_400de5|7|-40 20,0,0,0,0,0,0,0,0,0,0,0,0,0,0,20,
scooby_state_400ed8|54|2 19,0,0,0,0,0,0,0,0,0,0,0,0,0,0,19,
scooby_state_400de5|22|-40 19,0,0,0,0,0,0,0,0,0,0,0,0,0,0,19,
scooby_state_400de5|12|-40 19,0,0,0,0,0,0,0,0,0,0,0,0,0,0,19,
scooby_state_400e66|51|-12 19,0,0,0,0,0,0,0,0,0,0,0,0,0,0,19,
scooby_state_400e09|55|0 19,0,0,0,0,0,0,0,0,0,0,0,0,0,0,19,
scooby_state_400de5|21|-40 19,0,0,0,0,0,0,0,0,0,0,0,0,0,0,19,
scooby_state_400df3|61|0 19,0,0,0,0,0,0,0,0,0,0,0,0,0,0,19,
scooby_state_400de5|14|1 19,0,0,0,0,0,0,0,0,0,0,0,0,0,0,19,
scooby_state_400de5|20|1 18,1,0,0,0,0,0,0,0,0,0,0,0,0,0,19,
scooby_state_400de5|19|-40 19,0,0,0,0,0,0,0,0,0,0,0,0,0,0,19,
scooby_state_400de5|17|-40 19,0,0,0,0,0,0,0,0,0,0,0,0,0,0,19,
scooby_state_400de5|19|1 19,0,0,0,0,0,0,0,0,0,0,0,0,0,0,19,
scooby_state_400de5|13|1 19,0,0,0,0,0,0,0,0,0,0,0,0,0,0,19,
scooby_state_400e51|56|-1 19,0,0,0,0,0,0,0,0,0,0,0,0,0,0,19,
scooby_state_400e38|54|-1 17,0,0,0,0,0,0,1,0,0,0,0,0,0,0,18,
scooby_state_400de5|0|-40 18,0,0,0,0,0,0,0,0,0,0,0,0,0,0,18,
scooby_state_400dda|50|-3 18,0,0,0,0,0,0,0,0,0,0,0,0,0,0,18,
scooby_state_400de5|12|1 18,0,0,0,0,0,0,0,0,0,0,0,0,0,0,18,
scooby_state_400dfd|42|1 18,0,0,0,0,0,0,0,0,0,0,0,0,0,0,18,
scooby_state_400e51|56|2 18,0,0,0,0,0,0,0,0,0,0,0,0,0,0,18,
scooby_state_400dfd|47|1 18,0,0,0,0,0,0,0,0,0,0,0,0,0,0,18,
scooby_state_400de5|24|1 18,0,0,0,0,0,0,0,0,0,0,0,0,0,0,18,
scooby_state_400de5|22|1 18,0,0,0,0,0,0,0,0,0,0,0,0,0,0,18,
scooby_state_400e38|56|2 18,0,0,0,0,0,0,0,0,0,0,0,0,0,0,18,
scooby_state_400de5|18|1 18,0,0,0,0,0,0,0,0,0,0,0,0,0,0,18,
scooby_state_400e2c|50|-1 18,0,0,0,0,0,0,0,0,0,0,0,0,0,0,18,
scooby_state_400dda|53|3 18,0,0,0,0,0,0,0,0,0,0,0,0,0,0,18,
scooby_state_400e38|49|-2 18,0,0,0,0,0,0,0,0,0,0,0,0,0,0,18,
scooby_state_400e44|11|-40 18,0,0,0,0,0,0,0,0,0,0,0,0,0,0,18,
scooby_state_400e38|52|3 18,0,0,0,0,0,0,0,0,0,0,0,0,0,0,18,
scooby_state_400e51|54|-1 18,0,0,0,0,0,0,0,0,0,0,0,0,0,0,18,
scooby_state_400dfd|46|1 17,0,0,0,0,0,0,0,0,0,0,0,0,0,0,17,
scooby_state_400dda|55|-2 17,0,0,0,0,0,0,0,0,0,0,0,0,0,0,17,
scooby_state_400e51|53|2 17,0,0,0,0,0,0,0,0,0,0,0,0,0,0,17,
scooby_state_400de5|9|1 17,0,0,0,0,0,0,0,0,0,0,0,0,0,0,17,
scooby_state_400e38|60|-1 17,0,0,0,0,0,0,0,0,0,0,0,0,0,0,17,
scooby_state_400dfd|52|1 17,0,0,0,0,0,0,0,0,0,0,0,0,0,0,17,
scooby_state_400dc0|62|2 17,0,0,0,0,0,0,0,0,0,0,0,0,0,0,17,
scooby_state_400e09|61|0 17,0,0,0,0,0,0,0,0,0,0,0,0,0,0,17,
scooby_state_400dfd|40|1 17,0,0,0,0,0,0,0,0,0,0,0,0,0,0,17,
scooby_state_400de5|18|-40 17,0,0,0,0,0,0,0,0,0,0,0,0,0,0,17,
scooby_state_400dfd|59|1 17,0,0,0,0,0,0,0,0,0,0,0,0,0,0,17,
scooby_state_400de5|5|-40 17,0,0,0,0,0,0,0,0,0,0,0,0,0,0,17,
scooby_state_400df3|54|-1 17,0,0,0,0,0,0,0,0,0,0,0,0,0,0,17,
scooby_state_400df3|56|2 17,0,0,0,0,0,0,0,0,0,0,0,0,0,0,17,
scooby_state_400e38|62|2 17,0,0,0,0,0,0,0,0,0,0,0,0,0,0,17,
scooby_state_400e38|54|3 17,0,0,0,0,0,0,0,0,0,0,0,0,0,0,17,
scooby_state_400dc0|60|-1 17,0,0,0,0,0,0,0,0,0,0,0,0,0,0,17,
scooby_state_400dda|51|-2 17,0,0,0,0,0,0,0,0,0,0,0,0,0,0,17,
scooby_state_400e38|50|-2 17,0,0,0,0,0,0,0,0,0,0,0,0,0,0,17,
scooby_state_400e20|57|2 17,0,0,0,0,0,0,0,0,0,0,0,0,0,0,17,
scooby_state_400dda|60|-3 16,0,0,0,0,0,0,0,0,0,0,0,0,0,0,16,
scooby_state_400ef0|53|0 16,0,0,0,0,0,0,0,0,0,0,0,0,0,0,16,
scooby_state_400e51|60|-1 16,0,0,0,0,0,0,0,0,0,0,0,0,0,0,16,
scooby_state_400dc0|50|-3 16,0,0,0,0,0,0,0,0,0,0,0,0,0,0,16,
scooby_state_400dfd|51|1 16,0,0,0,0,0,0,0,0,0,0,0,0,0,0,16,
scooby_state_400de5|9|-40 16,0,0,0,0,0,0,0,0,0,0,0,0,0,0,16,
scooby_state_400e66|51|1 16,0,0,0,0,0,0,0,0,0,0,0,0,0,0,16,
scooby_state_400de5|3|-40 16,0,0,0,0,0,0,0,0,0,0,0,0,0,0,16,
scooby_state_400dfd|62|1 16,0,0,0,0,0,0,0,0,0,0,0,0,0,0,16,
scooby_state_400e51|54|3 16,0,0,0,0,0,0,0,0,0,0,0,0,0,0,16,
scooby_state_400dc0|60|4 16,0,0,0,0,0,0,0,0,0,0,0,0,0,0,16,
scooby_state_400dc0|56|-3 16,0,0,0,0,0,0,0,0,0,0,0,0,0,0,16,
scooby_state_400dfd|56|1 16,0,0,0,0,0,0,0,0,0,0,0,0,0,0,16,
scooby_state_400dc0|61|-2 16,0,0,0,0,0,0,0,0,0,0,0,0,0,0,16,
scooby_state_400de5|10|-40 16,0,0,0,0,0,0,0,0,0,0,0,0,0,0,16,
scooby_state_400e20|53|2 16,0,0,0,0,0,0,0,0,0,0,0,0,0,0,16,
scooby_state_400dda|53|4 16,0,0,0,0,0,0,0,0,0,0,0,0,0,0,16,
scooby_state_400d3b|63|6 16,0,0,0,0,0,0,0,0,0,0,0,0,0,0,16,
scooby_state_400dc0|53|4 16,0,0,0,0,0,0,0,0,0,0,0,0,0,0,16,
scooby_state_400dc0|51|-2 16,0,0,0,0,0,0,0,0,0,0,0,0,0,0,16,
scooby_state_400e20|51|-2 16,0,0,0,0,0,0,0,0,0,0,0,0,0,0,16,
scooby_state_400f0d|62|1 16,0,0,0,0,0,0,0,0,0,0,0,0,0,0,16,
scooby_state_400dc0|49|-3 16,0,0,0,0,0,0,0,0,0,0,0,0,0,0,16,
scooby_state_400dda|51|-3 16,0,0,0,0,0,0,0,0,0,0,0,0,0,0,16,
scooby_state_400dc0|51|-3 16,0,0,0,0,0,0,0,0,0,0,0,0,0,0,16,
scooby_state_400dc0|55|4 16,0,0,0,0,0,0,0,0,0,0,0,0,0,0,16,
scooby_state_400dda|55|4 16,0,0,0,0,0,0,0,0,0,0,0,0,0,0,16,
scooby_state_400dfd|41|1 16,0,0,0,0,0,0,0,0,0,0,0,0,0,0,16,
scooby_state_400dda|54|-3 16,0,0,0,0,0,0,0,0,0,0,0,0,0,0,16,
scooby_state_400dda|49|-3 16,0,0,0,0,0,0,0,0,0,0,0,0,0,0,16,
[...]
scooby_state_400e38|5|-1 1,0,0,0,0,0,0,0,0,0,0,0,0,0,0,1,
scooby_state_400e51|5|-1 1,0,0,0,0,0,0,0,0,0,0,0,0,0,0,1,
scooby_state_400e20|5|-1 1,0,0,0,0,0,0,0,0,0,0,0,0,0,0,1,
scooby_state_400dda|5|-1 1,0,0,0,0,0,0,0,0,0,0,0,0,0,0,1,
scooby_state_400e13|63|42 1,0,0,0,0,0,0,0,0,0,0,0,0,0,0,1,
scooby_state_400dcd|13|-40 1,0,0,0,0,0,0,0,0,0,0,0,0,0,0,1,
scooby_state_400df3|57|2 1,0,0,0,0,0,0,0,0,0,0,0,0,0,0,1,
scooby_state_400dcd|3|-40 1,0,0,0,0,0,0,0,0,0,0,0,0,0,0,1,
scooby_state_400dcd|62|41 1,0,0,0,0,0,0,0,0,0,0,0,0,0,0,1,
scooby_state_400dcd|50|-2 1,0,0,0,0,0,0,0,0,0,0,0,0,0,0,1,
scooby_state_400dcd|57|41 1,0,0,0,0,0,0,0,0,0,0,0,0,0,0,1,
scooby_state_400e74|55|-8 1,0,0,0,0,0,0,0,0,0,0,0,0,0,0,1,
scooby_state_400de5|22|-41 1,0,0,0,0,0,0,0,0,0,0,0,0,0,0,1,
scooby_state_400f08|52|-3 1,0,0,0,0,0,0,0,0,0,0,0,0,0,0,1,
scooby_state_400e09|7|2 1,0,0,0,0,0,0,0,0,0,0,0,0,0,0,1,
scooby_state_400e20|24|3 1,0,0,0,0,0,0,0,0,0,0,0,0,0,0,1,
scooby_state_400dda|24|3 1,0,0,0,0,0,0,0,0,0,0,0,0,0,0,1,
scooby_state_400e38|21|0 1,0,0,0,0,0,0,0,0,0,0,0,0,0,0,1,
scooby_state_400e38|21|-2 1,0,0,0,0,0,0,0,0,0,0,0,0,0,0,1,
scooby_state_400e13|62|41 1,0,0,0,0,0,0,0,0,0,0,0,0,0,0,1,
scooby_state_400e44|20|-40 1,0,0,0,0,0,0,0,0,0,0,0,0,0,0,1,
scooby_state_400e13|60|41 1,0,0,0,0,0,0,0,0,0,0,0,0,0,0,1,
scooby_state_400e13|58|41 1,0,0,0,0,0,0,0,0,0,0,0,0,0,0,1,
scooby_state_400e13|57|41 1,0,0,0,0,0,0,0,0,0,0,0,0,0,0,1,
scooby_state_400de5|13|-41 1,0,0,0,0,0,0,0,0,0,0,0,0,0,0,1,
scooby_state_400dda|3|2 1,0,0,0,0,0,0,0,0,0,0,0,0,0,0,1,
scooby_state_400e51|1|-1 1,0,0,0,0,0,0,0,0,0,0,0,0,0,0,1,
scooby_state_400dc0|1|0 1,0,0,0,0,0,0,0,0,0,0,0,0,0,0,1,
scooby_state_400dda|1|-1 1,0,0,0,0,0,0,0,0,0,0,0,0,0,0,1,
scooby_state_400dc0|1|-1 1,0,0,0,0,0,0,0,0,0,0,0,0,0,0,1,
scooby_state_400ed8|54|-2 1,0,0,0,0,0,0,0,0,0,0,0,0,0,0,1,
scooby_state_400f00|57|-3 1,0,0,0,0,0,0,0,0,0,0,0,0,0,0,1,
scooby_state_400dc0|52|0 1,0,0,0,0,0,0,0,0,0,0,0,0,0,0,1,
scooby_state_400de5|18|-41 1,0,0,0,0,0,0,0,0,0,0,0,0,0,0,1,
scooby_state_400e51|3|2 1,0,0,0,0,0,0,0,0,0,0,0,0,0,0,1,
scooby_state_400dc0|54|4 1,0,0,0,0,0,0,0,0,0,0,0,0,0,0,1,
scooby_state_400dda|63|2 1,0,0,0,0,0,0,0,0,0,0,0,0,0,0,1,
scooby_state_400de5|8|-41 1,0,0,0,0,0,0,0,0,0,0,0,0,0,0,1,
scooby_state_400d1d|61|6 1,0,0,0,0,0,0,0,0,0,0,0,0,0,0,1,
scooby_state_400e74|55|2 1,0,0,0,0,0,0,0,0,0,0,0,0,0,0,1,
scooby_state_400e44|18|-40 1,0,0,0,0,0,0,0,0,0,0,0,0,0,0,1,
scooby_state_400de5|62|41 1,0,0,0,0,0,0,0,0,0,0,0,0,0,0,1,
scooby_state_400dda|54|4 1,0,0,0,0,0,0,0,0,0,0,0,0,0,0,1,
scooby_state_400de5|3|-41 1,0,0,0,0,0,0,0,0,0,0,0,0,0,0,1,
scooby_state_400e38|17|-3 1,0,0,0,0,0,0,0,0,0,0,0,0,0,0,1,
scooby_state_400dfd|5|-1 1,0,0,0,0,0,0,0,0,0,0,0,0,0,0,1,
scooby_state_400df3|53|0 1,0,0,0,0,0,0,0,0,0,0,0,0,0,0,1,
scooby_state_400e44|45|-18 1,0,0,0,0,0,0,0,0,0,0,0,0,0,0,1,
scooby_state_400dc0|21|4 1,0,0,0,0,0,0,0,0,0,0,0,0,0,0,1,
scooby_state_400e44|16|-40 1,0,0,0,0,0,0,0,0,0,0,0,0,0,0,1,
scooby_state_400dda|21|4 1,0,0,0,0,0,0,0,0,0,0,0,0,0,0,1,
scooby_state_400e38|17|0 1,0,0,0,0,0,0,0,0,0,0,0,0,0,0,1,
scooby_state_400dc0|17|0 1,0,0,0,0,0,0,0,0,0,0,0,0,0,0,1,
scooby_state_400dda|17|-3 1,0,0,0,0,0,0,0,0,0,0,0,0,0,0,1,
scooby_state_400f0d|62|8 1,0,0,0,0,0,0,0,0,0,0,0,0,0,0,1,
scooby_state_400e44|17|0 1,0,0,0,0,0,0,0,0,0,0,0,0,0,0,1,
scooby_state_400e20|17|-2 1,0,0,0,0,0,0,0,0,0,0,0,0,0,0,1,
scooby_state_400dda|17|-2 1,0,0,0,0,0,0,0,0,0,0,0,0,0,0,1,
scooby_state_400df3|18|2 1,0,0,0,0,0,0,0,0,0,0,0,0,0,0,1,
scooby_state_400dc0|18|2 1,0,0,0,0,0,0,0,0,0,0,0,0,0,0,1,
scooby_state_400dc0|16|-1 1,0,0,0,0,0,0,0,0,0,0,0,0,0,0,1,
scooby_state_400e20|4|3 1,0,0,0,0,0,0,0,0,0,0,0,0,0,0,1,
scooby_state_400dc0|4|3 1,0,0,0,0,0,0,0,0,0,0,0,0,0,0,1,
scooby_state_400e20|1|-2 1,0,0,0,0,0,0,0,0,0,0,0,0,0,0,1,
scooby_state_400dda|22|-3 1,0,0,0,0,0,0,0,0,0,0,0,0,0,0,1,
scooby_state_400e51|22|-3 1,0,0,0,0,0,0,0,0,0,0,0,0,0,0,1,
scooby_state_400dc0|22|-3 1,0,0,0,0,0,0,0,0,0,0,0,0,0,0,1,
scooby_state_400e13|55|41 1,0,0,0,0,0,0,0,0,0,0,0,0,0,0,1,
scooby_state_400dc0|21|-2 1,0,0,0,0,0,0,0,0,0,0,0,0,0,0,1,
scooby_state_400de5|57|41 1,0,0,0,0,0,0,0,0,0,0,0,0,0,0,1,
scooby_state_400df3|6|-3 1,0,0,0,0,0,0,0,0,0,0,0,0,0,0,1,
scooby_state_400de0|50|0 1,0,0,0,0,0,0,0,0,0,0,0,0,0,0,1,
scooby_state_400e09|22|-3 1,0,0,0,0,0,0,0,0,0,0,0,0,0,0,1,
scooby_state_400df3|22|-3 1,0,0,0,0,0,0,0,0,0,0,0,0,0,0,1,
scooby_state_400e20|22|-3 1,0,0,0,0,0,0,0,0,0,0,0,0,0,0,1,
scooby_state_401040|1|1 0,1,0,0,0,0,0,0,0,0,0,0,0,0,0,1,
scooby_state_400e66|51|-7 1,0,0,0,0,0,0,0,0,0,0,0,0,0,0,1,
scooby_state_400de0|50|1 1,0,0,0,0,0,0,0,0,0,0,0,0,0,0,1,
scooby_state_400dda|1|-3 1,0,0,0,0,0,0,0,0,0,0,0,0,0,0,1,
scooby_state_400e44|12|-40 1,0,0,0,0,0,0,0,0,0,0,0,0,0,0,1,
scooby_state_400e5e|42|0 1,0,0,0,0,0,0,0,0,0,0,0,0,0,0,1,
scooby_state_400c84|50|1 1,0,0,0,0,0,0,0,0,0,0,0,0,0,0,1,
scooby_state_400d43|53|1 1,0,0,0,0,0,0,0,0,0,0,0,0,0,0,1,
scooby_state_400e09|1|-3 1,0,0,0,0,0,0,0,0,0,0,0,0,0,0,1,
scooby_state_400de5|7|-41 1,0,0,0,0,0,0,0,0,0,0,0,0,0,0,1,
scooby_state_400ed8|54|-3 1,0,0,0,0,0,0,0,0,0,0,0,0,0,0,1,
scooby_state_400e38|25|0 1,0,0,0,0,0,0,0,0,0,0,0,0,0,0,1,
scooby_state_400df3|16|-1 1,0,0,0,0,0,0,0,0,0,0,0,0,0,0,1,
scooby_state_400e5e|41|-1 1,0,0,0,0,0,0,0,0,0,0,0,0,0,0,1,
scooby_state_400e20|20|3 1,0,0,0,0,0,0,0,0,0,0,0,0,0,0,1,
scooby_state_400de5|49|0 1,0,0,0,0,0,0,0,0,0,0,0,0,0,0,1,
scooby_state_400dc0|25|0 1,0,0,0,0,0,0,0,0,0,0,0,0,0,0,1,
scooby_state_400e13|52|41 1,0,0,0,0,0,0,0,0,0,0,0,0,0,0,1,
scooby_state_400dfd|36|0 1,0,0,0,0,0,0,0,0,0,0,0,0,0,0,1,
scooby_state_4008c1|35|1 1,0,0,0,0,0,0,0,0,0,0,0,0,0,0,1,
scooby_state_400dda|25|0 1,0,0,0,0,0,0,0,0,0,0,0,0,0,0,1,
scooby_state_400f42|61|1 1,0,0,0,0,0,0,0,0,0,0,0,0,0,0,1,
scooby_state_400df3|25|0 1,0,0,0,0,0,0,0,0,0,0,0,0,0,0,1,
scooby_state_400f87|61|8 1,0,0,0,0,0,0,0,0,0,0,0,0,0,0,1,
scooby_state_400e01|56|1 1,0,0,0,0,0,0,0,0,0,0,0,0,0,0,1,
scooby_state_401082|2|0 1,0,0,0,0,0,0,0,0,0,0,0,0,0,0,1,
scooby_state_400e51|25|0 1,0,0,0,0,0,0,0,0,0,0,0,0,0,0,1,
scooby_state_400de5|0|-5 1,0,0,0,0,0,0,0,0,0,0,0,0,0,0,1,
scooby_state_400e74|55|4 1,0,0,0,0,0,0,0,0,0,0,0,0,0,0,1,
scooby_state_400e5e|11|-40 1,0,0,0,0,0,0,0,0,0,0,0,0,0,0,1,
scooby_state_400e20|6|-3 1,0,0,0,0,0,0,0,0,0,0,0,0,0,0,1,
scooby_state_400e38|21|4 1,0,0,0,0,0,0,0,0,0,0,0,0,0,0,1,
scooby_state_400d1d|61|7 1,0,0,0,0,0,0,0,0,0,0,0,0,0,0,1,
scooby_state_400dda|26|2 1,0,0,0,0,0,0,0,0,0,0,0,0,0,0,1,
scooby_state_400e13|11|0 1,0,0,0,0,0,0,0,0,0,0,0,0,0,0,1,
scooby_state_400e44|19|-40 1,0,0,0,0,0,0,0,0,0,0,0,0,0,0,1,
scooby_state_400e5e|9|-40 1,0,0,0,0,0,0,0,0,0,0,0,0,0,0,1,
scooby_state_400e09|25|0 1,0,0,0,0,0,0,0,0,0,0,0,0,0,0,1,
scooby_state_400dc8|49|0 1,0,0,0,0,0,0,0,0,0,0,0,0,0,0,1,
scooby_state_400dfd|16|-1 1,0,0,0,0,0,0,0,0,0,0,0,0,0,0,1,
scooby_state_400e20|1|0 1,0,0,0,0,0,0,0,0,0,0,0,0,0,0,1,
scooby_state_400fc1|63|13 1,0,0,0,0,0,0,0,0,0,0,0,0,0,0,1,
scooby_state_400a40|41|1 1,0,0,0,0,0,0,0,0,0,0,0,0,0,0,1,
scooby_state_400a87|42|1 1,0,0,0,0,0,0,0,0,0,0,0,0,0,0,1,
scooby_state_400c04|48|1 1,0,0,0,0,0,0,0,0,0,0,0,0,0,0,1,
scooby_state_400dc0|3|2 1,0,0,0,0,0,0,0,0,0,0,0,0,0,0,1,
scooby_state_400dc0|26|2 1,0,0,0,0,0,0,0,0,0,0,0,0,0,0,1,
scooby_state_400dc0|5|-1 1,0,0,0,0,0,0,0,0,0,0,0,0,0,0,1,
scooby_state_400dc0|1|-2 1,0,0,0,0,0,0,0,0,0,0,0,0,0,0,1,
scooby_state_400de5|12|-41 1,0,0,0,0,0,0,0,0,0,0,0,0,0,0,1,
scooby_state_400b60|45|-17 1,0,0,0,0,0,0,0,0,0,0,0,0,0,0,1,
scooby_state_401104|4|1 1,0,0,0,0,0,0,0,0,0,0,0,0,0,0,1,
scooby_state_400f00|60|6 1,0,0,0,0,0,0,0,0,0,0,0,0,0,0,1,
scooby_state_400e20|26|2 1,0,0,0,0,0,0,0,0,0,0,0,0,0,0,1,
scooby_state_400bc7|47|1 1,0,0,0,0,0,0,0,0,0,0,0,0,0,0,1,
scooby_state_400e13|59|41 1,0,0,0,0,0,0,0,0,0,0,0,0,0,0,1,
scooby_state_400de5|60|43 1,0,0,0,0,0,0,0,0,0,0,0,0,0,0,1,
scooby_state_400e7c|60|11 1,0,0,0,0,0,0,0,0,0,0,0,0,0,0,1,
scooby_state_400dc0|17|-3 1,0,0,0,0,0,0,0,0,0,0,0,0,0,0,1,
scooby_state_400dda|53|-1 1,0,0,0,0,0,0,0,0,0,0,0,0,0,0,1,
scooby_state_400e44|15|-40 1,0,0,0,0,0,0,0,0,0,0,0,0,0,0,1,
scooby_state_400e51|7|2 1,0,0,0,0,0,0,0,0,0,0,0,0,0,0,1,
scooby_state_400902|36|1 1,0,0,0,0,0,0,0,0,0,0,0,0,0,0,1,
scooby_state_400e09|53|-1 1,0,0,0,0,0,0,0,0,0,0,0,0,0,0,1,
scooby_state_400e44|13|-40 1,0,0,0,0,0,0,0,0,0,0,0,0,0,0,1,
scooby_state_400e20|3|2 1,0,0,0,0,0,0,0,0,0,0,0,0,0,0,1,
scooby_state_400dfd|29|0 1,0,0,0,0,0,0,0,0,0,0,0,0,0,0,1,
scooby_state_400dc0|63|2 1,0,0,0,0,0,0,0,0,0,0,0,0,0,0,1,
scooby_state_400dfd|18|2 1,0,0,0,0,0,0,0,0,0,0,0,0,0,0,1,
scooby_state_400e51|26|2 1,0,0,0,0,0,0,0,0,0,0,0,0,0,0,1,
scooby_state_401003|0|0 1,0,0,0,0,0,0,0,0,0,0,0,0,0,0,1,
scooby_state_400df3|26|2 1,0,0,0,0,0,0,0,0,0,0,0,0,0,0,1,
scooby_state_400e09|60|4 1,0,0,0,0,0,0,0,0,0,0,0,0,0,0,1,
scooby_state_400a05|40|-23 1,0,0,0,0,0,0,0,0,0,0,0,0,0,0,1,
scooby_state_400e44|10|-40 1,0,0,0,0,0,0,0,0,0,0,0,0,0,0,1,
scooby_state_400cc8|51|-8 1,0,0,0,0,0,0,0,0,0,0,0,0,0,0,1,
scooby_state_400d85|54|1 1,0,0,0,0,0,0,0,0,0,0,0,0,0,0,1,
scooby_state_400dc8|49|-14 1,0,0,0,0,0,0,0,0,0,0,0,0,0,0,1,
scooby_state_400e13|61|41 1,0,0,0,0,0,0,0,0,0,0,0,0,0,0,1,
scooby_state_400e20|25|0 1,0,0,0,0,0,0,0,0,0,0,0,0,0,0,1,
scooby_state_400f8f|51|-5 1,0,0,0,0,0,0,0,0,0,0,0,0,0,0,1,
scooby_state_400d59|62|9 1,0,0,0,0,0,0,0,0,0,0,0,0,0,0,1,
scooby_state_400e38|37|0 1,0,0,0,0,0,0,0,0,0,0,0,0,0,0,1,
scooby_state_400e09|4|3 1,0,0,0,0,0,0,0,0,0,0,0,0,0,0,1,
scooby_state_400dfd|21|-1 1,0,0,0,0,0,0,0,0,0,0,0,0,0,0,1,
scooby_state_400dda|48|0 1,0,0,0,0,0,0,0,0,0,0,0,0,0,0,1,
scooby_state_400e5e|43|2 1,0,0,0,0,0,0,0,0,0,0,0,0,0,0,1,
scooby_state_400e51|53|-1 1,0,0,0,0,0,0,0,0,0,0,0,0,0,0,1,
scooby_state_400df3|63|2 1,0,0,0,0,0,0,0,0,0,0,0,0,0,0,1,
scooby_state_400e5e|4|-40 1,0,0,0,0,0,0,0,0,0,0,0,0,0,0,1,
scooby_state_400e20|21|4 1,0,0,0,0,0,0,0,0,0,0,0,0,0,0,1,
scooby_state_400d1d|61|9 1,0,0,0,0,0,0,0,0,0,0,0,0,0,0,1,
scooby_state_400e5e|1|-40 1,0,0,0,0,0,0,0,0,0,0,0,0,0,0,1,
scooby_state_400e5e|0|-40 1,0,0,0,0,0,0,0,0,0,0,0,0,0,0,1,
scooby_state_400dc0|53|-1 1,0,0,0,0,0,0,0,0,0,0,0,0,0,0,1,
scooby_state_400dc0|21|0 1,0,0,0,0,0,0,0,0,0,0,0,0,0,0,1,
scooby_state_400e38|1|-1 1,0,0,0,0,0,0,0,0,0,0,0,0,0,0,1,
scooby_state_400e09|63|2 1,0,0,0,0,0,0,0,0,0,0,0,0,0,0,1,
scooby_state_400e56|58|-1 1,0,0,0,0,0,0,0,0,0,0,0,0,0,0,1,
scooby_state_400cd8|51|1 1,0,0,0,0,0,0,0,0,0,0,0,0,0,0,1,
scooby_state_400e5e|3|-40 1,0,0,0,0,0,0,0,0,0,0,0,0,0,0,1,
scooby_state_400dcd|8|-40 1,0,0,0,0,0,0,0,0,0,0,0,0,0,0,1,
scooby_state_400dfd|0|-1 1,0,0,0,0,0,0,0,0,0,0,0,0,0,0,1,
scooby_state_400de5|2|-41 1,0,0,0,0,0,0,0,0,0,0,0,0,0,0,1,
scooby_state_400e09|5|-1 1,0,0,0,0,0,0,0,0,0,0,0,0,0,0,1,
scooby_state_400e13|51|41 1,0,0,0,0,0,0,0,0,0,0,0,0,0,0,1,
scooby_state_400e13|54|41 1,0,0,0,0,0,0,0,0,0,0,0,0,0,0,1,
scooby_state_400dda|5|0 1,0,0,0,0,0,0,0,0,0,0,0,0,0,0,1,
scooby_state_400d00|52|1 1,0,0,0,0,0,0,0,0,0,0,0,0,0,0,1,
scooby_state_400f87|62|1 1,0,0,0,0,0,0,0,0,0,0,0,0,0,0,1,
scooby_state_400e2c|57|39 1,0,0,0,0,0,0,0,0,0,0,0,0,0,0,1,
scooby_state_400dda|16|-1 1,0,0,0,0,0,0,0,0,0,0,0,0,0,0,1,
scooby_state_400e7c|60|5 1,0,0,0,0,0,0,0,0,0,0,0,0,0,0,1,
scooby_state_400ec7|54|-2 1,0,0,0,0,0,0,0,0,0,0,0,0,0,0,1,
scooby_state_400df3|1|-3 1,0,0,0,0,0,0,0,0,0,0,0,0,0,0,1,
scooby_state_400cf6|51|-4 1,0,0,0,0,0,0,0,0,0,0,0,0,0,0,1,
scooby_state_400ac4|43|1 1,0,0,0,0,0,0,0,0,0,0,0,0,0,0,1,
scooby_state_400df3|10|4 1,0,0,0,0,0,0,0,0,0,0,0,0,0,0,1,
scooby_state_400b80|46|1 1,0,0,0,0,0,0,0,0,0,0,0,0,0,0,1,
scooby_state_400bbf|56|1 1,0,0,0,0,0,0,0,0,0,0,0,0,0,0,1,
scooby_state_400e24|59|9 1,0,0,0,0,0,0,0,0,0,0,0,0,0,0,1,
scooby_state_400dcd|58|0 1,0,0,0,0,0,0,0,0,0,0,0,0,0,0,1,
scooby_state_400dfd|23|2 1,0,0,0,0,0,0,0,0,0,0,0,0,0,0,1,
scooby_state_400dfd|35|0 1,0,0,0,0,0,0,0,0,0,0,0,0,0,0,1,
scooby_state_400ec7|59|1 1,0,0,0,0,0,0,0,0,0,0,0,0,0,0,1,
scooby_state_400dcd|50|-1 1,0,0,0,0,0,0,0,0,0,0,0,0,0,0,1,
scooby_state_400f00|57|5 1,0,0,0,0,0,0,0,0,0,0,0,0,0,0,1,
scooby_state_400e5e|0|-29 1,0,0,0,0,0,0,0,0,0,0,0,0,0,0,1,
scooby_state_400b00|44|1 1,0,0,0,0,0,0,0,0,0,0,0,0,0,0,1,
scooby_state_400e44|21|-40 1,0,0,0,0,0,0,0,0,0,0,0,0,0,0,1,
scooby_state_400e44|6|-40 1,0,0,0,0,0,0,0,0,0,0,0,0,0,0,1,
scooby_state_400e09|56|-3 1,0,0,0,0,0,0,0,0,0,0,0,0,0,0,1,
scooby_state_4009c2|39|1 1,0,0,0,0,0,0,0,0,0,0,0,0,0,0,1,
scooby_state_400de5|17|-41 1,0,0,0,0,0,0,0,0,0,0,0,0,0,0,1,
scooby_state_400e38|53|-1 1,0,0,0,0,0,0,0,0,0,0,0,0,0,0,1,
scooby_state_400e13|49|41 1,0,0,0,0,0,0,0,0,0,0,0,0,0,0,1,
scooby_state_400e38|24|3 1,0,0,0,0,0,0,0,0,0,0,0,0,0,0,1,
scooby_state_400dda|21|-2 1,0,0,0,0,0,0,0,0,0,0,0,0,0,0,1,
scooby_state_400e5e|5|-40 1,0,0,0,0,0,0,0,0,0,0,0,0,0,0,1,
scooby_state_400c40|49|1 1,0,0,0,0,0,0,0,0,0,0,0,0,0,0,1,
scooby_state_400e44|7|-40 1,0,0,0,0,0,0,0,0,0,0,0,0,0,0,1,
scooby_state_400e20|16|0 1,0,0,0,0,0,0,0,0,0,0,0,0,0,0,1,
scooby_state_400e38|22|-3 1,0,0,0,0,0,0,0,0,0,0,0,0,0,0,1,
scooby_state_400e09|26|2 1,0,0,0,0,0,0,0,0,0,0,0,0,0,0,1,
scooby_state_400e38|3|2 1,0,0,0,0,0,0,0,0,0,0,0,0,0,0,1,
scooby_state_400ef0|53|-9 1,0,0,0,0,0,0,0,0,0,0,0,0,0,0,1,
scooby_state_400dda|20|3 1,0,0,0,0,0,0,0,0,0,0,0,0,0,0,1,

scooby_action_0_deg_dist 0,32,0,0,0,0,0,0,0,0,0,0,0,0,0,0,
scooby_action_12_deg_dist 0,25,0,0,0,0,0,0,0,0,0,0,0,0,0,0,
scooby_action_3_deg_dist 0,37,0,0,0,0,0,0,0,0,0,0,0,0,0,0,
scooby_action_32_deg_dist 0,22,0,0,0,0,0,0,0,0,0,0,0,0,0,0,
scooby_action_5_deg_dist 0,32,0,0,0,0,0,0,0,0,0,0,0,0,0,0,
scooby_action_1_deg_dist 0,9273,6182,0,15443,0,186768,0,0,0,0,0,0,0,0,0,
scooby_action_30_deg_dist 0,31,0,0,0,0,0,0,0,0,0,0,0,0,0,0,
scooby_action_4_deg_dist 0,25,0,0,0,0,0,0,0,0,0,0,0,0,0,0,
scooby_action_-3_deg_dist 0,23,0,0,0,0,0,0,0,0,0,0,0,0,0,0,
scooby_action_10_deg_dist 0,41,0,0,0,0,0,0,0,0,0,0,0,0,0,0,
scooby_action_-1_deg_dist 0,28,0,0,0,0,0,0,0,0,0,0,0,0,0,0,
scooby_action_23_deg_dist 0,27,0,0,0,0,0,0,0,0,0,0,0,0,0,0,
scooby_action_-6_deg_dist 0,24,0,0,0,0,0,0,0,0,0,0,0,0,0,0,
scooby_action_11_deg_dist 0,150,0,0,0,0,0,0,0,0,0,0,0,0,0,0,
scooby_action_22_deg_dist 0,34,0,0,0,0,0,0,0,0,0,0,0,0,0,0,

scooby_track_called 218197
scooby_track_same_address 9449
scooby_track_evict 208492

scooby_reward_demand_called 218197
scooby_reward_demand_pt_not_found 4947
scooby_reward_demand_pt_found 213250
scooby_reward_demand_pt_found_total 213250
scooby_reward_demand_has_reward 9460
scooby_reward_train_called 472
scooby_reward_assign_reward_called 208736
scooby_reward_no_pref 32
scooby_reward_incorrect 440
scooby_reward_correct_untimely 192366
scooby_reward_correct_timely 11424
scooby_reward_out_of_bounds 4474
scooby_reward_tracker_hit 0

scooby_reward_none_low_bw 32
scooby_reward_none_high_bw 0
scooby_reward_incorrect_low_bw 440
scooby_reward_incorrect_high_bw 0
scooby_reward_correct_untimely_low_bw 192366
scooby_reward_correct_untimely_high_bw 0
scooby_reward_correct_timely_low_bw 11424
scooby_reward_correct_timely_high_bw 0
scooby_reward_out_of_bounds_low_bw 4474
scooby_reward_out_of_bounds_high_bw 0
scooby_reward_tracker_hit_low_bw 0
scooby_reward_tracker_hit_high_bw 0

scooby_reward_1 0,412,192324,11283,4252,0,
scooby_reward_3 0,2,25,4,6,0,
scooby_reward_4 0,0,9,13,3,0,
scooby_reward_5 0,0,8,15,9,0,
scooby_reward_10 0,5,0,26,10,0,
scooby_reward_11 0,4,0,19,127,0,
scooby_reward_12 0,2,0,16,7,0,
scooby_reward_22 0,3,0,17,14,0,
scooby_reward_23 0,2,0,15,10,0,
scooby_reward_30 0,1,0,11,19,0,
scooby_reward_32 0,4,0,5,13,0,
scooby_reward_-1 0,0,0,0,1,0,
scooby_reward_-3 0,0,0,0,0,0,
scooby_reward_-6 0,5,0,0,3,0,
scooby_reward_0 32,0,0,0,0,0,

scooby_train_called 208491
scooby_train_compute_reward 472

scooby_register_fill_called 186458
scooby_register_fill_set 11447
scooby_register_fill_set_total 11447

scooby_register_prefetch_hit_called 571153
scooby_register_prefetch_hit_set 173848
scooby_register_prefetch_hit_set_total 173848

scooby_pref_issue_scooby 1073331

learning_engine_featurewise.action.called 218197
learning_engine_featurewise.action.explore 419
learning_engine_featurewise.action.exploit 217778
learning_engine_featurewise.action.fallback 0
learning_engine_featurewise.action.dyn_fallback_saved_bw 0
learning_engine_featurewise.action.dyn_fallback_saved_bw_acc 13
learning_engine_featurewise.action.index_1_explored 27
learning_engine_featurewise.action.index_1_exploited 217639
learning_engine_featurewise.action.index_3_explored 31
learning_engine_featurewise.action.index_3_exploited 6
learning_engine_featurewise.action.index_4_explored 23
learning_engine_featurewise.action.index_4_exploited 2
learning_engine_featurewise.action.index_5_explored 26
learning_engine_featurewise.action.index_5_exploited 6
learning_engine_featurewise.action.index_10_explored 38
learning_engine_featurewise.action.index_10_exploited 3
learning_engine_featurewise.action.index_11_explored 28
learning_engine_featurewise.action.index_11_exploited 122
learning_engine_featurewise.action.index_12_explored 25
learning_engine_featurewise.action.index_12_exploited 0
learning_engine_featurewise.action.index_22_explored 34
learning_engine_featurewise.action.index_22_exploited 0
learning_engine_featurewise.action.index_23_explored 27
learning_engine_featurewise.action.index_23_exploited 0
learning_engine_featurewise.action.index_30_explored 31
learning_engine_featurewise.action.index_30_exploited 0
learning_engine_featurewise.action.index_32_explored 22
learning_engine_featurewise.action.index_32_exploited 0
learning_engine_featurewise.action.index_-1_explored 28
learning_engine_featurewise.action.index_-1_exploited 0
learning_engine_featurewise.action.index_-3_explored 23
learning_engine_featurewise.action.index_-3_exploited 0
learning_engine_featurewise.action.index_-6_explored 24
learning_engine_featurewise.action.index_-6_exploited 0
learning_engine_featurewise.action.index_0_explored 32
learning_engine_featurewise.action.index_0_exploited 0
learning_engine_featurewise.learn.called 208491
learning_engine_featurewise.learn.su_skip_PC 0
learning_engine_featurewise.learn.su_skip_PC_Delta 0

learning_engine_featurewise.q_value_histogram.bucket_0 0
learning_engine_featurewise.q_value_histogram.bucket_1 0
learning_engine_featurewise.q_value_histogram.bucket_2 0
learning_engine_featurewise.q_value_histogram.bucket_3 0
learning_engine_featurewise.q_value_histogram.bucket_4 1399
learning_engine_featurewise.q_value_histogram.bucket_5 1475
learning_engine_featurewise.q_value_histogram.bucket_6 214904
learning_engine_featurewise.q_value_histogram.bucket_7 0

learning_engine_featurewise.consensus.total 217778
learning_engine_featurewise.consensus.feature_align_PC 217554
learning_engine_featurewise.consensus.feature_align_PC_ratio 1.00
learning_engine_featurewise.consensus.feature_align_PC_Delta 217456
learning_engine_featurewise.consensus.feature_align_PC_Delta_ratio 1.00
learning_engine_featurewise.consensus.feature_align_all 217232
learning_engine_featurewise.consensus.feature_align_all_ratio 1.00

learning_engine_featurewise.feature_PC_min_weight 1000000.00000000
learning_engine_featurewise.feature_PC_max_weight 0.00000000
learning_engine_featurewise.feature_PC_Delta_min_weight 1000000.00000000
learning_engine_featurewise.feature_PC_Delta_max_weight 0.00000000
unique_pcs 70
unique_pages 3003
unique_trigger_pcs 15
total_bitmaps_seen 0
unique_bitmaps_seen 0

scooby_bw_epochs 35605
scooby_bw_level_0 10179
scooby_bw_level_1 9467
scooby_bw_level_2 7088
scooby_bw_level_3 8871

scooby_ipc_epochs 0
scooby_ipc_level_0 0
scooby_ipc_level_1 0
scooby_ipc_level_2 0
scooby_ipc_level_3 0

scooby_cache_acc_epochs 8629
scooby_cache_acc_level_0 1
scooby_cache_acc_level_1 0
scooby_cache_acc_level_2 5
scooby_cache_acc_level_3 13
scooby_cache_acc_level_4 19
scooby_cache_acc_level_5 56
scooby_cache_acc_level_6 117
scooby_cache_acc_level_7 248
scooby_cache_acc_level_8 732
scooby_cache_acc_level_9 7438

Channel_0_RQ_row_buffer_hit 144251
Channel_0_RQ_row_buffer_miss 37682
Channel_0_WQ_row_buffer_hit 48
Channel_0_WQ_row_buffer_miss 182
Channel_0_WQ_full 0
Channel_0_dbus_congested 56558

avg_congested_cycle 7

DRAM_bw_pochs 35605
DRAM_bw_level_0 10179
DRAM_bw_level_1 9467
DRAM_bw_level_2 7088
DRAM_bw_level_3 8871
