Original cmd-> /cluster/home/vlnitu/CA-Lab4-24-vlnitu/Pythia/bin/perceptron-no-multi-no-ship-1core --warmup_instructions=1000000 --simulation_instructions=10000000 --l2c_prefetcher_types=scooby --config=/cluster/home/vlnitu/CA-Lab4-24-vlnitu/Pythia/config/pythia.ini --mail-type=BEGIN,END  -traces /cluster/home/vlnitu/CA-Lab4-24-vlnitu/Pythia/traces/429.mcf-184B.champsimtrace.xz
*************************************************
   ChampSim Multicore Out-of-Order Simulator
   Last compiled: Nov 19 2024 20:10:11
*************************************************
parsing config file: /cluster/home/vlnitu/CA-Lab4-24-vlnitu/Pythia/config/pythia.ini
unable to parse section: , name: mail-type, value: BEGIN,END

trace_0 /cluster/home/vlnitu/CA-Lab4-24-vlnitu/Pythia/traces/429.mcf-184B.champsimtrace.xz
adding L2C_PREFETCHER: Scooby
Initialize SHIP state
warmup_instructions 1000000
simulation_instructions 10000000
champsim_seed 223
measure_ipc 0
measure_ipc_epoch 1000
measure_dram_bw 1
measure_dram_bw_epoch 256
measure_cache_acc 1
measure_cache_acc_epoch 1024
l1d_perfect 0
l2c_perfect 0
llc_perfect 0
l1d_semi_perfect 0
l2c_semi_perfect 0
llc_semi_perfect 0
semi_perfect_cache_page_buffer_size 64

num_cpus 1
cpu_freq 4000
dram_io_freq 2400
page_size 4096
block_size 64
max_read_per_cycle 8
max_fill_per_cycle 1
dram_channels 1
log2_dram_channels 0
dram_ranks 1
dram_banks 8
dram_rows 65536
dram_columns 128
dram_row_size 8
dram_size 4096
dram_pages 1048576

fetch_width 6
decode_width 6
exec_width 4
lq_width 2
sq_width 2
retire_width 4
scheduler_size 128
branch_mispredict_penalty 20
rob_size 256
lq_size 72
sq_size 56
num_instr_destinations_sparc 4
num_instr_destinations 2
num_instr_sources 4

itlb_set 16
itlb_way 8
itlb_rq_size 16
itlb_wq_size 16
itlb_pq_size 0
itlb_mshr_size 8
itlb_latency 1

dtlb_set 16
dtlb_way 4
dtlb_rq_size 16
dtlb_wq_size 16
dtlb_pq_size 0
dtlb_mshr_size 8
dtlb_latency 1

stlb_set 128
stlb_way 12
stlb_rq_size 32
stlb_wq_size 32
stlb_pq_size 0
stlb_mshr_size 16
stlb_latency 8

l1i_size 32
l1i_set 64
l1i_way 8
l1i_rq_size 64
l1i_wq_size 64
l1i_pq_size 8
l1i_mshr_size 8
l1i_latency 1

l1d_size 32
l1d_set 64
l1d_way 8
l1d_rq_size 64
l1d_wq_size 64
l1d_pq_size 8
l1d_mshr_size 16
l1d_latency 4

l2c_size 256
l2c_set 512
l2c_way 8
l2c_rq_size 32
l2c_wq_size 32
l2c_pq_size 32
l2c_mshr_size 32
l2c_latency 10

llc_size 2048
llc_set 2048
llc_way 16
llc_rq_size 32
llc_wq_size 32
llc_pq_size 32
llc_mshr_size 64
llc_latency 20

dram_channel_width 8
dram_wq_size 64
dram_rq_size 64
tRP 15
tRCD 15
tCAS 12.5
dram_dbus_turn_around_time 30
dram_write_high_wm 56
dram_write_low_wm 48
min_dram_writes_per_switch 16
dram_mtps 2400
dram_dbus_return_time 13

scooby_alpha 0.0065088
scooby_gamma 0.556301
scooby_epsilon 0.00182284
scooby_state_num_bits 10
scooby_max_states 1024
scooby_seed 200
scooby_policy EGreedy
scooby_learning_type SARSA
scooby_actions 1,3,4,5,10,11,12,22,23,30,32,-1,-3,-6,0,
scooby_max_actions 15
scooby_pt_size 256
scooby_st_size 64
scooby_max_pcs 5
scooby_max_offsets 5
scooby_max_deltas 5
scooby_reward_none -4
scooby_reward_incorrect -8
scooby_reward_correct_untimely 12
scooby_reward_correct_timely 20
scooby_brain_zero_init 0
scooby_enable_reward_all 0
scooby_enable_track_multiple 0
scooby_enable_reward_out_of_bounds 1
scooby_reward_out_of_bounds -12
scooby_state_type 1
scooby_state_hash_type 11
scooby_access_debug 0
scooby_print_access_debug 0
scooby_print_access_debug_pc deadbeef
scooby_print_access_debug_pc_count 0
scooby_print_trace 0
scooby_enable_state_action_stats 1
scooby_enable_reward_tracker_hit 0
scooby_reward_tracker_hit -2
scooby_enable_featurewise_engine 1
scooby_pref_degree 1
scooby_enable_dyn_degree 1
scooby_max_to_avg_q_thresholds 0.5,1,2,
scooby_dyn_degrees 1,2,4,4,
scooby_multi_deg_select_type 2
scooby_last_pref_offset_conf_thresholds 1,3,8,
scooby_dyn_degrees_type2 1,2,4,6,
scooby_action_tracker_size 2
scooby_high_bw_thresh 4
scooby_enable_hbw_reward 1
scooby_reward_hbw_correct_timely 20
scooby_reward_hbw_correct_untimely 12
scooby_reward_hbw_incorrect -14
scooby_reward_hbw_none -2
scooby_reward_hbw_out_of_bounds -12
scooby_reward_hbw_tracker_hit -2
scooby_last_pref_offset_conf_thresholds_hbw 1,3,8,
scooby_dyn_degrees_type2_hbw 1,2,4,6,

le_enable_trace 0
le_trace_interval 0
le_trace_file_name 
le_trace_state 0
le_enable_score_plot 0
le_plot_file_name 
le_plot_actions 
le_enable_action_trace 0
le_action_trace_interval 0
le_action_trace_name 
le_enable_action_plot 0

le_featurewise_active_features PC, PC_Delta
le_featurewise_num_tilings 3,3,
le_featurewise_num_tiles 128,128,
le_featurewise_hash_types 2,2,
le_featurewise_enable_tiling_offset 1,1,
le_featurewise_max_q_thresh 0.5
le_featurewise_enable_action_fallback 1
le_featurewise_feature_weights 1,1,
le_featurewise_enable_dynamic_weight 0
le_featurewise_weight_gradient 0.001
le_featurewise_disable_adjust_weight_all_features_align 1
le_featurewise_selective_update 0
le_featurewise_pooling_type 2
le_featurewise_enable_dyn_action_fallback 1
le_featurewise_bw_acc_check_level 1
le_featurewise_acc_thresh 2
le_featurewise_enable_trace 0
le_featurewise_trace_feature_type 0
le_featurewise_trace_feature 
le_featurewise_trace_interval 0
le_featurewise_trace_record_count 0
le_featurewise_trace_file_name 
le_featurewise_enable_score_plot 0
le_featurewise_plot_actions 
le_featurewise_plot_file_name 


Heartbeat CPU  0 instructions:    1000002 cycles:    1102232 heartbeat IPC: 0.90725 cumulative IPC: 0.90725 (Simulation time: 0 hr 0 min 2 sec) 

Warmup complete CPU  0 instructions:    1000002 cycles:    1102232 (Simulation time: 0 hr 0 min 2 sec) 

Heartbeat CPU  0 instructions:    2000000 cycles:   10088914 heartbeat IPC: 0.11128 cumulative IPC: 0.11128 (Simulation time: 0 hr 0 min 6 sec) 
Heartbeat CPU  0 instructions:    3000000 cycles:   18479838 heartbeat IPC: 0.11918 cumulative IPC: 0.11509 (Simulation time: 0 hr 0 min 10 sec) 
Heartbeat CPU  0 instructions:    4000000 cycles:   30009311 heartbeat IPC: 0.08673 cumulative IPC: 0.10378 (Simulation time: 0 hr 0 min 14 sec) 
Heartbeat CPU  0 instructions:    5000001 cycles:   45833403 heartbeat IPC: 0.06319 cumulative IPC: 0.08942 (Simulation time: 0 hr 0 min 20 sec) 
Heartbeat CPU  0 instructions:    6000001 cycles:   55407800 heartbeat IPC: 0.10445 cumulative IPC: 0.09207 (Simulation time: 0 hr 0 min 24 sec) 
Heartbeat CPU  0 instructions:    7000001 cycles:   64656514 heartbeat IPC: 0.10812 cumulative IPC: 0.09441 (Simulation time: 0 hr 0 min 28 sec) 
Heartbeat CPU  0 instructions:    8000000 cycles:   73757105 heartbeat IPC: 0.10988 cumulative IPC: 0.09635 (Simulation time: 0 hr 0 min 32 sec) 
Heartbeat CPU  0 instructions:    9000003 cycles:   82994423 heartbeat IPC: 0.10826 cumulative IPC: 0.09769 (Simulation time: 0 hr 0 min 36 sec) 
Heartbeat CPU  0 instructions:   10000002 cycles:   91844344 heartbeat IPC: 0.11300 cumulative IPC: 0.09918 (Simulation time: 0 hr 0 min 40 sec) 
Heartbeat CPU  0 instructions:   11000000 cycles:  100736426 heartbeat IPC: 0.11246 cumulative IPC: 0.10037 (Simulation time: 0 hr 0 min 44 sec) 
Finished CPU 0 instructions: 10000000 cycles: 99634392 cumulative IPC: 0.10037 (Simulation time: 0 hr 0 min 44 sec) 

ChampSim completed all CPUs

[ROI Statistics]
Core_0_instructions 10000000
Core_0_cycles 99634392
Core_0_IPC 0.10037

Core_0_branch_prediction_accuracy 92.00938
Core_0_branch_MPKI 19.09480
Core_0_average_ROB_occupancy_at_mispredict 49.91749

Core_0_L1D_total_access 2266851
Core_0_L1D_total_hit 880877
Core_0_L1D_total_miss 1385974
Core_0_L1D_loads 2098636
Core_0_L1D_load_hit 721654
Core_0_L1D_load_miss 1376982
Core_0_L1D_RFOs 168215
Core_0_L1D_RFO_hit 159223
Core_0_L1D_RFO_miss 8992
Core_0_L1D_prefetches 0
Core_0_L1D_prefetch_hit 0
Core_0_L1D_prefetch_miss 0
Core_0_L1D_writebacks 0
Core_0_L1D_writeback_hit 0
Core_0_L1D_writeback_miss 0
Core_0_L1D_prefetch_requested 0
Core_0_L1D_prefetch_dropped 0
Core_0_L1D_prefetch_issued 0
Core_0_L1D_prefetch_filled 0
Core_0_L1D_prefetch_useful 0
Core_0_L1D_prefetch_useless 0
Core_0_L1D_prefetch_late 0
Core_0_L1D_average_miss_latency 86.55917

Core_0_L1D_rq_access 3168782
Core_0_L1D_rq_forward 0
Core_0_L1D_rq_merged 1066128
Core_0_L1D_rq_to_cache 2102654
Core_0_L1D_rq_full 0

Core_0_L1D_wq_access 179737
Core_0_L1D_wq_forward 0
Core_0_L1D_wq_merged 10577
Core_0_L1D_wq_to_cache 169160
Core_0_L1D_wq_full 0

Core_0_L1D_pq_access 0
Core_0_L1D_pq_forward 0
Core_0_L1D_pq_merged 0
Core_0_L1D_pq_to_cache 0
Core_0_L1D_pq_full 0

Core_0_L1D_acc_epochs 92228
Core_0_L1D_acc_level_0 92228
Core_0_L1D_acc_level_1 0
Core_0_L1D_acc_level_2 0
Core_0_L1D_acc_level_3 0
Core_0_L1D_acc_level_4 0
Core_0_L1D_acc_level_5 0
Core_0_L1D_acc_level_6 0
Core_0_L1D_acc_level_7 0
Core_0_L1D_acc_level_8 0
Core_0_L1D_acc_level_9 0

Core_0_L1I_total_access 1922236
Core_0_L1I_total_hit 1922233
Core_0_L1I_total_miss 3
Core_0_L1I_loads 1922236
Core_0_L1I_load_hit 1922233
Core_0_L1I_load_miss 3
Core_0_L1I_RFOs 0
Core_0_L1I_RFO_hit 0
Core_0_L1I_RFO_miss 0
Core_0_L1I_prefetches 0
Core_0_L1I_prefetch_hit 0
Core_0_L1I_prefetch_miss 0
Core_0_L1I_writebacks 0
Core_0_L1I_writeback_hit 0
Core_0_L1I_writeback_miss 0
Core_0_L1I_prefetch_requested 0
Core_0_L1I_prefetch_dropped 0
Core_0_L1I_prefetch_issued 0
Core_0_L1I_prefetch_filled 0
Core_0_L1I_prefetch_useful 0
Core_0_L1I_prefetch_useless 0
Core_0_L1I_prefetch_late 0
Core_0_L1I_average_miss_latency 222.33333

Core_0_L1I_rq_access 10000002
Core_0_L1I_rq_forward 0
Core_0_L1I_rq_merged 8077765
Core_0_L1I_rq_to_cache 1922237
Core_0_L1I_rq_full 0

Core_0_L1I_wq_access 0
Core_0_L1I_wq_forward 0
Core_0_L1I_wq_merged 0
Core_0_L1I_wq_to_cache 0
Core_0_L1I_wq_full 0

Core_0_L1I_pq_access 0
Core_0_L1I_pq_forward 0
Core_0_L1I_pq_merged 0
Core_0_L1I_pq_to_cache 0
Core_0_L1I_pq_full 0

Core_0_L1I_acc_epochs 92228
Core_0_L1I_acc_level_0 92228
Core_0_L1I_acc_level_1 0
Core_0_L1I_acc_level_2 0
Core_0_L1I_acc_level_3 0
Core_0_L1I_acc_level_4 0
Core_0_L1I_acc_level_5 0
Core_0_L1I_acc_level_6 0
Core_0_L1I_acc_level_7 0
Core_0_L1I_acc_level_8 0
Core_0_L1I_acc_level_9 0

Core_0_L2C_total_access 2691345
Core_0_L2C_total_hit 794903
Core_0_L2C_total_miss 1896442
Core_0_L2C_loads 1376982
Core_0_L2C_load_hit 514214
Core_0_L2C_load_miss 862768
Core_0_L2C_RFOs 8992
Core_0_L2C_RFO_hit 2317
Core_0_L2C_RFO_miss 6675
Core_0_L2C_prefetches 1217276
Core_0_L2C_prefetch_hit 190661
Core_0_L2C_prefetch_miss 1026615
Core_0_L2C_writebacks 88095
Core_0_L2C_writeback_hit 87711
Core_0_L2C_writeback_miss 384
Core_0_L2C_prefetch_requested 1402735
Core_0_L2C_prefetch_dropped 17
Core_0_L2C_prefetch_issued 1402718
Core_0_L2C_prefetch_filled 1132134
Core_0_L2C_prefetch_useful 357844
Core_0_L2C_prefetch_useless 772666
Core_0_L2C_prefetch_late 296
Core_0_L2C_average_miss_latency 208.16694

Core_0_L2C_rq_access 1385976
Core_0_L2C_rq_forward 0
Core_0_L2C_rq_merged 0
Core_0_L2C_rq_to_cache 1385974
Core_0_L2C_rq_full 0

Core_0_L2C_wq_access 88095
Core_0_L2C_wq_forward 2
Core_0_L2C_wq_merged 0
Core_0_L2C_wq_to_cache 88095
Core_0_L2C_wq_full 0

Core_0_L2C_pq_access 1402718
Core_0_L2C_pq_forward 0
Core_0_L2C_pq_merged 5733
Core_0_L2C_pq_to_cache 1396985
Core_0_L2C_pq_full 0

Core_0_L2C_acc_epochs 92228
Core_0_L2C_acc_level_0 9146
Core_0_L2C_acc_level_1 10082
Core_0_L2C_acc_level_2 21849
Core_0_L2C_acc_level_3 32983
Core_0_L2C_acc_level_4 13766
Core_0_L2C_acc_level_5 2927
Core_0_L2C_acc_level_6 729
Core_0_L2C_acc_level_7 278
Core_0_L2C_acc_level_8 146
Core_0_L2C_acc_level_9 322

Core_0_LLC_total_access 1976195
Core_0_LLC_total_hit 1092459
Core_0_LLC_total_miss 883736
Core_0_LLC_loads 862506
Core_0_LLC_load_hit 573273
Core_0_LLC_load_miss 289233
Core_0_LLC_RFOs 6672
Core_0_LLC_RFO_hit 2585
Core_0_LLC_RFO_miss 4087
Core_0_LLC_prefetches 1026879
Core_0_LLC_prefetch_hit 454451
Core_0_LLC_prefetch_miss 572428
Core_0_LLC_writebacks 80138
Core_0_LLC_writeback_hit 62150
Core_0_LLC_writeback_miss 17988
Core_0_LLC_prefetch_requested 0
Core_0_LLC_prefetch_dropped 0
Core_0_LLC_prefetch_issued 0
Core_0_LLC_prefetch_filled 639343
Core_0_LLC_prefetch_useful 71792
Core_0_LLC_prefetch_useless 555301
Core_0_LLC_prefetch_late 0
Core_0_LLC_average_miss_latency 378.89553

Core_0_LLC_rq_access 869179
Core_0_LLC_rq_forward 0
Core_0_LLC_rq_merged 0
Core_0_LLC_rq_to_cache 869178
Core_0_LLC_rq_full 0

Core_0_LLC_wq_access 80138
Core_0_LLC_wq_forward 1
Core_0_LLC_wq_merged 0
Core_0_LLC_wq_to_cache 80138
Core_0_LLC_wq_full 0

Core_0_LLC_pq_access 1132431
Core_0_LLC_pq_forward 0
Core_0_LLC_pq_merged 0
Core_0_LLC_pq_to_cache 1132431
Core_0_LLC_pq_full 0

Core_0_LLC_acc_epochs 98376
Core_0_LLC_acc_level_0 57041
Core_0_LLC_acc_level_1 25319
Core_0_LLC_acc_level_2 9663
Core_0_LLC_acc_level_3 3611
Core_0_LLC_acc_level_4 1177
Core_0_LLC_acc_level_5 942
Core_0_LLC_acc_level_6 289
Core_0_LLC_acc_level_7 131
Core_0_LLC_acc_level_8 54
Core_0_LLC_acc_level_9 149

Core_0_major_page_fault 0
Core_0_minor_page_fault 31919

scooby_st_lookup 1510586
scooby_st_hit 185354
scooby_st_evict 1325168
scooby_st_insert 1325232
scooby_st_streaming 0

scooby_predict_called 1510586
scooby_predict_out_of_bounds 37018
scooby_predict_action_1 1291823
scooby_predict_issue_action_1 1285961
scooby_predict_hit_action_1 5862
scooby_predict_out_of_bounds_action_1 23110
scooby_predict_action_3 6054
scooby_predict_issue_action_3 5864
scooby_predict_hit_action_3 190
scooby_predict_out_of_bounds_action_3 309
scooby_predict_action_4 5848
scooby_predict_issue_action_4 5619
scooby_predict_hit_action_4 229
scooby_predict_out_of_bounds_action_4 411
scooby_predict_action_5 5452
scooby_predict_issue_action_5 5309
scooby_predict_hit_action_5 143
scooby_predict_out_of_bounds_action_5 413
scooby_predict_action_10 4743
scooby_predict_issue_action_10 4580
scooby_predict_hit_action_10 163
scooby_predict_out_of_bounds_action_10 869
scooby_predict_action_11 4666
scooby_predict_issue_action_11 4469
scooby_predict_hit_action_11 197
scooby_predict_out_of_bounds_action_11 1010
scooby_predict_action_12 4434
scooby_predict_issue_action_12 4289
scooby_predict_hit_action_12 145
scooby_predict_out_of_bounds_action_12 1072
scooby_predict_action_22 3322
scooby_predict_issue_action_22 3175
scooby_predict_hit_action_22 147
scooby_predict_out_of_bounds_action_22 1833
scooby_predict_action_23 3294
scooby_predict_issue_action_23 3172
scooby_predict_hit_action_23 122
scooby_predict_out_of_bounds_action_23 1911
scooby_predict_action_30 2470
scooby_predict_issue_action_30 2356
scooby_predict_hit_action_30 114
scooby_predict_out_of_bounds_action_30 2380
scooby_predict_action_32 2448
scooby_predict_issue_action_32 2368
scooby_predict_hit_action_32 80
scooby_predict_out_of_bounds_action_32 2451
scooby_predict_action_-1 33364
scooby_predict_issue_action_-1 31748
scooby_predict_hit_action_-1 1616
scooby_predict_out_of_bounds_action_-1 495
scooby_predict_action_-3 6006
scooby_predict_issue_action_-3 5787
scooby_predict_hit_action_-3 219
scooby_predict_out_of_bounds_action_-3 232
scooby_predict_action_-6 5580
scooby_predict_issue_action_-6 5395
scooby_predict_hit_action_-6 185
scooby_predict_out_of_bounds_action_-6 522
scooby_predict_action_0 94064
scooby_predict_issue_action_0 0
scooby_predict_hit_action_0 0
scooby_predict_out_of_bounds_action_0 0
scooby_predict_multi_deg_called 16710
scooby_predict_predicted 1402735
scooby_predict_multi_deg 32643
scooby_predict_multi_deg_2 16382
scooby_predict_multi_deg_3 6763
scooby_predict_multi_deg_4 6646
scooby_predict_multi_deg_5 1440
scooby_predict_multi_deg_6 1412
scooby_predict_multi_deg_7 0
scooby_predict_multi_deg_8 0
scooby_predict_multi_deg_9 0
scooby_predict_multi_deg_10 0
scooby_predict_multi_deg_11 0
scooby_predict_multi_deg_12 0
scooby_predict_multi_deg_13 0
scooby_predict_multi_deg_14 0
scooby_predict_multi_deg_15 0
scooby_predict_multi_deg_16 0

scooby_selected_deg_1 1353382
scooby_selected_deg_2 9656
scooby_selected_deg_3 0
scooby_selected_deg_4 5497
scooby_selected_deg_5 0
scooby_selected_deg_6 1557
scooby_selected_deg_7 0
scooby_selected_deg_8 0
scooby_selected_deg_9 0
scooby_selected_deg_10 0
scooby_selected_deg_11 0
scooby_selected_deg_12 0
scooby_selected_deg_13 0
scooby_selected_deg_14 0
scooby_selected_deg_15 0
scooby_selected_deg_16 0

scooby_state_402359|22|0 8881,3,4,7,10,14,7,5,10,4,8,12,4,10,522,9501,
scooby_state_402359|8|0 8005,7,5,10,7,4,4,10,1,5,11,7,2,6,414,8498,
scooby_state_402359|2|0 7802,9,14,11,7,10,12,6,6,5,4,10,4,13,451,8364,
scooby_state_402359|20|0 7749,7,12,7,7,5,11,8,5,3,7,9,8,7,479,8324,
scooby_state_402359|6|0 7433,9,8,7,9,6,4,6,11,8,3,8,8,8,456,7984,
scooby_state_402359|51|0 7213,5,12,7,3,5,6,3,7,4,8,7,4,3,381,7668,
scooby_state_402359|11|0 7049,11,7,7,9,5,5,5,3,5,5,9,9,8,385,7522,
scooby_state_402359|46|0 6946,7,3,6,10,9,10,8,7,4,3,10,9,4,426,7462,
scooby_state_402359|1|0 6958,2,3,0,8,5,3,5,9,8,0,6,7,4,411,7429,
scooby_state_402359|54|0 6921,6,7,12,5,7,7,6,5,4,8,6,7,5,379,7385,
scooby_state_402359|12|0 6847,6,8,10,2,9,4,4,4,8,8,3,13,4,407,7337,
scooby_state_402359|33|0 6803,5,10,10,5,3,4,5,10,7,5,9,8,11,351,7246,
scooby_state_402363|16|0 6452,4,5,4,5,5,5,7,8,4,6,4,7,6,547,7069,
scooby_state_402359|63|0 6580,7,7,6,7,7,9,6,3,12,8,13,3,6,392,7066,
scooby_state_402363|14|0 6375,12,5,6,8,7,4,5,4,9,4,4,7,2,493,6945,
scooby_state_402363|33|0 6280,5,3,8,6,6,7,5,2,4,2,7,9,11,586,6941,
scooby_state_402359|50|0 6369,10,4,9,6,7,4,11,6,4,7,5,8,6,405,6861,
scooby_state_402359|16|0 6395,11,2,3,8,8,6,5,4,6,8,5,4,4,380,6849,
scooby_state_40234c|52|0 6531,4,3,6,4,3,2,1,0,1,1,7,13,10,240,6826,
scooby_state_40234c|50|0 6428,8,16,14,10,7,6,8,3,8,5,3,7,5,298,6826,
scooby_state_40234c|34|0 6422,7,18,14,14,6,8,7,6,4,2,5,9,6,297,6825,
scooby_state_40234c|27|0 6472,5,5,2,3,1,16,11,13,8,2,2,1,3,281,6825,
scooby_state_40234c|28|0 6527,4,2,4,5,4,1,2,2,2,1,5,14,12,240,6825,
scooby_state_40234c|11|0 6486,4,4,1,3,2,15,14,12,7,4,6,2,2,263,6825,
scooby_state_40234c|2|0 6418,7,12,13,11,5,7,10,7,8,3,4,6,5,309,6825,
scooby_state_40234c|12|0 6534,3,3,4,4,2,2,2,0,2,3,8,11,13,234,6825,
scooby_state_40234c|3|0 6487,7,5,1,3,1,16,13,12,5,2,5,2,2,264,6825,
scooby_state_402363|7|0 6229,5,6,6,7,2,9,5,7,4,5,10,5,7,518,6825,
scooby_state_40234c|35|0 6475,9,5,1,3,1,17,13,12,8,0,6,3,3,269,6825,
scooby_state_40234c|36|0 6523,3,2,4,4,2,1,2,2,1,4,7,13,12,245,6825,
scooby_state_40234c|4|0 6516,2,3,3,4,1,1,1,1,5,1,7,14,12,254,6825,
scooby_state_40234c|59|0 6478,5,7,0,4,0,20,13,13,6,2,4,2,2,269,6825,
scooby_state_40234c|60|0 6528,4,2,4,3,2,0,3,0,3,6,6,13,13,238,6825,
scooby_state_40234c|26|0 6433,7,17,15,11,5,5,8,5,5,4,3,4,7,296,6825,
scooby_state_40234c|58|0 6422,8,20,14,11,5,3,7,7,5,4,3,6,5,305,6825,
scooby_state_40234c|44|0 6530,2,4,2,4,1,1,0,0,3,3,5,12,14,243,6824,
scooby_state_40234c|19|0 6494,11,11,1,2,2,16,13,12,7,0,3,1,4,247,6824,
scooby_state_40234c|20|0 6540,1,4,2,3,0,1,2,1,1,2,5,13,13,236,6824,
scooby_state_40234c|51|0 6489,4,6,2,2,0,17,12,12,6,1,4,0,2,267,6824,
scooby_state_40234c|10|0 6423,8,17,13,12,5,9,7,5,8,4,2,8,5,298,6824,
scooby_state_40234c|18|0 6436,7,18,14,11,6,4,9,5,9,3,2,8,5,287,6824,
scooby_state_40234c|42|0 6431,7,15,13,12,8,6,7,6,7,3,5,4,3,297,6824,
scooby_state_40234c|5|0 6462,3,2,5,7,11,0,1,5,1,16,15,1,6,288,6823,
scooby_state_40234c|29|0 6462,4,5,4,4,11,1,2,5,0,16,18,2,4,285,6823,
scooby_state_40234c|53|0 6450,7,7,4,2,11,0,2,2,2,19,15,1,7,294,6823,
scooby_state_40234c|37|0 6439,3,6,2,6,11,1,2,6,1,17,18,3,2,306,6823,
scooby_state_40234c|43|0 6500,9,9,0,1,0,18,11,14,8,1,5,0,3,244,6823,
scooby_state_40234c|45|0 6443,5,3,3,8,13,0,2,4,0,15,18,5,4,300,6823,
scooby_state_40234c|61|0 6453,3,6,4,5,13,0,3,8,0,16,21,1,4,286,6823,
scooby_state_40234c|13|0 6431,3,8,1,4,11,2,3,5,0,16,21,3,6,308,6822,
scooby_state_40234c|21|0 6459,2,4,3,6,14,0,3,9,4,18,21,3,5,271,6822,
scooby_state_40234c|49|0 6469,10,4,11,5,2,3,0,8,1,4,6,2,12,271,6808,
scooby_state_40234c|1|0 6501,10,4,7,6,1,1,2,5,1,1,3,3,6,257,6808,
scooby_state_40234c|41|0 6493,13,6,8,5,0,1,2,2,0,4,3,2,7,261,6807,
scooby_state_40234c|25|0 6477,9,5,10,9,2,3,2,4,2,4,7,3,9,261,6807,
scooby_state_40234c|9|0 6465,9,2,10,8,0,1,1,2,1,3,4,2,8,291,6807,
scooby_state_40234c|57|0 6465,10,9,9,9,1,2,1,2,3,7,2,1,7,279,6807,
scooby_state_40234c|17|0 6479,10,7,8,7,0,2,0,4,1,7,3,2,6,271,6807,
scooby_state_40234c|33|0 6430,9,7,10,9,0,2,0,3,1,3,2,2,12,317,6807,
scooby_state_402363|17|0 6187,8,5,5,7,7,6,7,8,5,5,7,12,2,523,6794,
scooby_state_40234c|63|0 6474,3,4,7,6,11,6,3,1,1,1,3,8,4,256,6788,
scooby_state_40234c|38|0 6411,8,0,2,1,2,5,0,0,4,4,3,10,6,332,6788,
scooby_state_40234c|40|0 6459,3,3,0,4,3,2,7,7,6,0,5,4,2,283,6788,
scooby_state_40234c|0|0 6553,5,1,2,5,1,3,5,2,7,1,2,3,1,197,6788,
scooby_state_40234c|54|0 6441,4,0,2,1,6,3,1,1,4,3,6,7,0,309,6788,
scooby_state_40234c|56|0 6400,4,2,1,5,3,1,11,1,9,0,7,2,2,340,6788,
scooby_state_40234c|39|0 6489,3,2,6,3,10,4,3,3,5,1,6,3,4,246,6788,
scooby_state_40234c|46|0 6403,4,1,0,2,4,9,0,0,3,5,3,3,6,345,6788,
scooby_state_40234c|47|0 6524,6,6,6,2,11,6,5,1,4,1,1,9,1,205,6788,
scooby_state_40234c|55|0 6506,2,1,10,3,9,5,1,2,2,2,2,4,4,235,6788,
scooby_state_40234c|14|0 6435,1,1,1,2,4,2,0,1,5,8,7,6,3,311,6787,
scooby_state_40234c|62|0 6404,5,2,0,2,6,4,0,0,5,4,4,12,4,335,6787,
scooby_state_40234c|7|0 6539,5,2,7,1,12,7,6,3,3,1,1,4,2,194,6787,
scooby_state_40234c|31|0 6531,1,2,10,1,10,4,3,2,2,1,1,5,2,212,6787,
scooby_state_40234c|48|0 6454,2,2,1,3,2,2,7,5,11,1,5,4,2,286,6787,
scooby_state_40234c|15|0 6477,1,2,7,3,11,6,1,6,4,0,5,0,0,264,6787,
scooby_state_40234c|24|0 6481,2,3,1,3,2,3,8,2,9,0,4,6,1,262,6787,
scooby_state_40234c|16|0 6412,4,1,0,5,3,3,10,2,7,0,6,3,1,330,6787,
scooby_state_40234c|8|0 6449,2,1,0,4,0,2,7,3,9,1,6,5,2,296,6787,
scooby_state_40234c|6|0 6405,3,1,1,2,5,9,2,3,4,4,5,10,3,330,6787,
scooby_state_40234c|32|0 6398,4,1,0,3,3,3,12,3,10,2,6,3,4,335,6787,
scooby_state_40234c|30|0 6420,3,0,0,2,4,3,2,3,5,1,9,8,3,324,6787,
scooby_state_40234c|22|0 6411,6,4,1,2,2,6,1,0,0,5,6,8,5,330,6787,
scooby_state_40234c|23|0 6518,4,3,7,2,10,4,2,1,3,2,0,7,4,220,6787,
scooby_state_402363|4|0 6178,2,9,5,5,6,3,9,7,8,5,6,7,5,515,6770,
scooby_state_402363|50|0 6111,7,8,4,5,8,6,3,8,3,4,6,5,7,545,6730,
scooby_state_402359|9|0 6243,2,7,4,7,4,10,11,6,4,10,8,5,5,387,6713,
scooby_state_402363|45|0 6088,8,6,3,13,4,3,6,7,5,3,8,6,8,542,6710,
scooby_state_402363|25|0 6083,8,10,9,7,8,4,4,5,1,3,15,6,6,515,6684,
scooby_state_402363|44|0 6085,3,10,6,8,6,8,6,5,3,1,6,4,3,502,6656,
scooby_state_402363|41|0 6066,10,9,5,7,10,7,10,5,6,2,9,6,5,489,6646,
scooby_state_402363|24|0 6040,7,9,9,6,7,6,4,3,5,10,4,9,4,497,6620,
scooby_state_402359|38|0 6249,1,6,7,3,4,4,8,4,2,5,2,4,6,313,6618,
scooby_state_402363|39|0 5995,11,12,6,5,6,5,5,3,10,7,7,9,8,527,6616,
scooby_state_402363|52|0 6082,2,5,9,2,6,5,4,5,5,4,10,6,5,463,6613,
scooby_state_402363|22|0 6039,3,4,4,9,7,10,6,5,4,4,4,9,4,499,6611,
scooby_state_402363|5|0 6051,3,5,8,3,10,7,6,1,3,5,8,8,4,479,6601,
scooby_state_402363|36|0 6020,4,5,6,7,5,2,1,2,4,4,10,5,7,489,6571,
scooby_state_402359|4|0 6111,7,4,3,8,10,3,5,9,4,2,9,5,9,364,6553,
scooby_state_402363|11|0 5987,4,5,6,11,4,1,1,6,2,7,7,5,6,470,6522,
scooby_state_402363|48|0 5922,4,6,5,4,2,3,2,2,3,2,10,8,9,512,6494,
scooby_state_402363|40|0 5924,4,5,3,5,7,7,5,4,10,4,10,8,7,488,6491,
scooby_state_402363|37|0 5933,7,6,6,6,3,6,4,2,3,4,3,3,6,474,6466,
scooby_state_402363|13|0 5879,3,10,5,8,4,4,1,3,4,6,10,8,6,491,6442,
scooby_state_402363|42|0 5924,6,4,5,7,4,4,4,2,6,5,11,4,6,448,6440,
scooby_state_402363|58|0 5927,6,5,5,2,4,4,10,5,4,2,3,6,2,454,6439,
scooby_state_402363|63|0 5857,1,3,8,3,3,4,6,4,2,4,9,4,2,496,6406,
scooby_state_402363|54|0 5813,7,4,7,5,9,4,6,5,5,4,6,7,7,500,6389,
scooby_state_402363|43|0 5760,8,6,8,3,6,9,3,8,9,3,8,11,9,520,6371,
scooby_state_402363|0|0 5780,4,4,5,9,3,6,5,5,5,8,2,7,7,506,6356,
scooby_state_402363|10|0 5790,3,2,4,5,3,7,4,7,7,6,5,4,3,467,6317,
scooby_state_402363|28|0 5791,3,7,2,3,5,8,4,3,6,5,14,3,9,442,6305,
scooby_state_402363|38|0 5784,5,8,7,7,3,3,6,3,3,3,6,9,5,453,6305,
scooby_state_402363|20|0 5748,4,15,4,6,4,7,10,4,6,4,9,2,7,474,6304,
scooby_state_402359|10|0 5913,6,4,5,5,5,5,0,3,6,5,1,5,5,329,6297,
scooby_state_402363|26|0 5691,5,7,7,3,5,7,3,6,6,2,7,5,6,533,6293,
scooby_state_402363|15|0 5786,5,7,3,5,6,3,6,7,3,1,8,3,5,440,6288,
scooby_state_402359|58|0 5849,4,5,8,3,1,5,7,3,3,3,3,8,3,368,6273,
scooby_state_402359|30|0 5868,4,7,6,5,5,7,2,5,2,5,8,4,4,336,6268,
scooby_state_402363|53|0 5720,7,7,4,7,3,5,1,8,2,8,12,4,2,475,6265,
scooby_state_402363|12|0 5717,5,2,12,6,5,2,2,3,6,4,12,7,4,471,6258,
scooby_state_402359|0|0 5818,8,6,7,7,7,7,7,1,2,4,7,4,3,360,6248,
scooby_state_402363|3|0 5675,8,5,5,8,10,5,7,1,7,6,5,3,5,483,6233,
scooby_state_402363|57|0 5651,7,3,6,2,7,5,6,4,7,10,7,5,4,505,6229,
scooby_state_402363|8|0 5664,4,5,8,2,2,4,7,6,2,5,7,5,4,477,6202,
scooby_state_402363|35|0 5677,6,7,5,4,5,4,1,7,4,4,4,6,2,450,6186,
scooby_state_402363|1|0 5658,5,6,11,5,2,3,3,3,5,2,8,3,4,466,6184,
scooby_state_402363|55|0 5639,8,8,3,7,3,7,4,5,3,4,8,7,6,469,6181,
scooby_state_402363|60|0 5631,8,6,6,1,5,5,5,5,6,5,9,5,4,464,6165,
scooby_state_402363|9|0 5651,5,5,5,2,4,3,10,10,2,2,4,9,7,438,6157,
scooby_state_402359|39|0 5751,6,4,3,5,2,7,3,6,3,7,6,3,6,310,6122,
scooby_state_402363|62|0 5569,8,6,5,5,4,6,5,8,1,8,7,11,7,470,6120,
scooby_state_402363|30|0 5593,8,5,8,6,1,2,4,1,8,8,7,11,5,452,6119,
scooby_state_402363|47|0 5562,2,9,7,6,9,2,1,7,4,5,3,3,12,487,6119,
scooby_state_402363|32|0 5565,3,5,6,7,2,4,4,4,5,2,7,5,7,468,6094,
scooby_state_402359|5|0 5665,6,2,2,3,7,2,6,2,4,3,5,4,4,371,6086,
scooby_state_402363|27|0 5545,2,3,5,4,7,6,5,2,7,4,11,5,10,455,6071,
scooby_state_402359|18|0 5676,11,3,2,5,2,4,3,2,2,3,5,8,4,331,6061,
scooby_state_402363|59|0 5514,6,5,8,2,6,4,4,11,3,4,4,11,5,455,6042,
scooby_state_402363|31|0 5506,6,9,5,6,3,6,5,9,4,4,9,6,6,439,6023,
scooby_state_402363|6|0 5474,6,3,3,6,3,5,4,4,9,4,6,2,9,481,6019,
scooby_state_402363|34|0 5521,12,2,4,6,7,7,1,1,6,2,7,6,7,428,6017,
scooby_state_402363|51|0 5532,5,7,6,3,4,3,4,5,7,3,7,5,9,415,6015,
scooby_state_402363|21|0 5526,3,6,2,4,4,3,6,4,4,7,9,1,7,423,6009,
scooby_state_402359|3|0 5627,5,8,6,9,4,2,3,5,1,4,5,2,6,294,5981,
scooby_state_402359|28|0 5613,12,4,5,6,5,13,2,5,4,7,10,1,3,283,5973,
scooby_state_402359|26|0 5610,3,2,7,4,6,4,8,4,2,4,3,6,5,301,5969,
scooby_state_402363|19|0 5456,4,4,4,6,4,5,4,3,3,5,9,8,3,446,5964,
scooby_state_402363|29|0 5468,6,6,2,6,4,2,4,6,4,5,5,8,5,419,5950,
scooby_state_402363|56|0 5440,8,3,6,7,5,3,2,8,6,4,5,9,12,430,5948,
scooby_state_402363|2|0 5424,4,5,7,8,7,4,2,7,0,4,2,2,6,437,5919,
scooby_state_402359|36|0 5432,7,6,5,6,3,6,6,4,4,5,6,11,8,395,5904,
scooby_state_402363|61|0 5432,1,9,5,5,3,8,7,4,4,3,12,2,7,397,5899,
scooby_state_402363|46|0 5407,7,4,1,5,3,4,10,2,2,2,5,8,6,431,5897,
scooby_state_402363|18|0 5391,3,7,8,6,6,3,5,3,5,4,6,5,6,399,5857,
scooby_state_402359|7|0 5435,5,6,8,4,10,6,4,5,4,0,6,10,10,339,5852,
scooby_state_402363|49|0 5286,5,3,4,7,2,8,4,4,0,2,4,6,5,441,5781,
scooby_state_402359|48|0 5385,4,1,6,5,6,4,5,3,5,2,6,5,5,319,5761,
scooby_state_402363|23|0 5234,4,10,3,13,4,5,6,6,3,4,3,3,3,445,5746,
scooby_state_402359|31|0 5328,3,4,4,9,5,5,2,2,1,3,4,3,6,303,5682,
scooby_state_402359|42|0 5231,7,2,4,5,6,6,4,2,7,1,5,7,3,324,5614,
scooby_state_402359|17|0 5203,5,7,7,10,3,3,3,8,0,4,4,5,3,341,5606,
scooby_state_402359|13|0 5124,3,5,5,3,2,4,4,5,3,3,10,6,3,321,5501,
scooby_state_402359|24|0 5116,9,1,5,6,3,2,3,4,1,1,6,8,4,305,5474,
scooby_state_402359|37|0 5028,4,9,6,2,3,10,4,9,5,5,9,4,7,304,5409,
scooby_state_402359|15|0 5087,5,3,4,3,3,2,2,4,3,2,5,2,5,276,5406,
scooby_state_402359|44|0 5026,4,8,8,6,8,14,4,1,5,6,6,2,4,266,5368,
scooby_state_402359|14|0 4968,5,4,4,5,8,5,4,4,0,6,6,5,2,334,5360,
scooby_state_402359|45|0 4983,4,2,7,3,8,6,7,7,9,4,4,4,9,296,5353,
scooby_state_402359|19|0 4938,4,5,5,5,2,4,3,2,3,4,5,5,4,262,5251,
scooby_state_402359|21|0 4900,7,3,3,4,0,7,5,3,6,1,5,4,6,260,5214,
scooby_state_402359|35|0 4641,5,4,6,6,9,5,3,9,6,5,4,7,7,315,5032,
scooby_state_402359|53|0 4534,3,6,5,3,6,8,3,5,1,4,5,5,3,319,4910,
scooby_state_402359|29|0 4611,3,6,6,1,5,7,4,1,3,1,4,3,3,246,4904,
scooby_state_402359|60|0 4435,3,5,0,3,1,2,3,7,4,2,5,4,2,253,4729,
scooby_state_402359|34|0 4359,4,4,5,5,4,6,3,2,5,9,5,8,3,232,4654,
scooby_state_402359|47|0 4302,2,3,7,4,8,6,3,4,2,1,3,1,7,276,4629,
scooby_state_402359|56|0 4287,5,4,1,2,5,9,1,2,7,3,6,4,3,278,4617,
scooby_state_402359|59|0 4247,2,8,1,5,5,6,6,10,1,4,6,4,4,234,4543,
scooby_state_402359|40|0 4160,4,4,2,5,5,2,3,5,3,2,3,4,4,262,4468,
scooby_state_402359|32|0 4141,0,1,5,3,2,3,3,6,4,3,4,5,4,223,4407,
scooby_state_402359|41|0 3999,6,6,4,4,6,6,1,5,0,2,4,6,5,259,4313,
scooby_state_402359|61|0 4004,7,0,1,3,3,1,1,2,3,4,5,4,3,265,4306,
scooby_state_402359|49|0 3830,4,6,2,5,6,6,5,2,2,3,11,3,4,232,4121,
scooby_state_402359|55|0 3811,5,3,2,2,3,4,5,3,5,4,3,3,3,220,4076,
scooby_state_402359|52|0 3732,3,3,5,6,2,3,7,3,3,6,8,3,2,232,4018,
scooby_state_402359|25|0 3684,4,7,2,4,6,6,3,1,6,1,3,1,7,223,3958,
scooby_state_402359|23|0 3444,1,2,6,3,2,2,1,2,1,1,5,4,5,211,3690,
scooby_state_402359|62|0 3330,4,3,2,1,1,4,1,3,1,1,5,2,0,202,3560,
scooby_state_402359|57|0 3172,4,2,7,7,4,7,2,2,5,3,3,1,7,216,3442,
scooby_state_402359|27|0 3037,5,6,3,2,2,4,2,7,1,3,0,3,1,209,3285,
scooby_state_402359|43|0 2934,1,3,3,3,5,4,3,1,3,2,3,2,1,189,3157,
scooby_state_40222b|7|0 493,3,6,4,4,6,5,2,5,4,3,8,3,6,7,559,
scooby_state_40222b|63|0 457,5,5,5,4,8,5,4,5,4,4,8,4,6,7,531,
scooby_state_402221|28|0 416,7,4,6,4,4,4,4,4,4,4,8,6,6,8,489,
scooby_state_4005e1|2|0 464,0,0,2,0,1,0,1,1,1,0,1,1,0,2,474,
scooby_state_4005e1|11|0 457,1,1,2,1,0,2,1,0,0,2,2,0,0,3,472,
scooby_state_4005e1|1|0 451,2,1,2,1,1,1,0,0,1,7,0,0,2,2,471,
scooby_state_4005e1|24|0 457,1,0,0,1,0,0,1,1,0,1,1,3,2,1,469,
scooby_state_4005e1|0|0 453,1,2,1,0,1,1,0,2,2,1,1,1,0,1,467,
scooby_state_4005e1|4|0 448,0,1,1,1,0,1,2,1,1,0,1,1,1,1,460,
scooby_state_4005e1|5|0 449,0,0,0,0,0,3,0,1,1,1,1,0,1,2,459,
scooby_state_4005e1|7|0 447,1,1,1,0,1,1,1,1,0,1,1,0,1,0,457,
scooby_state_4005e1|19|0 438,0,0,4,0,1,2,2,2,1,0,3,1,1,1,456,
scooby_state_40221d|39|0 420,3,4,3,2,3,0,2,2,2,1,5,3,1,4,455,
scooby_state_4005e1|15|0 440,1,0,0,1,2,0,3,1,1,1,0,2,0,1,453,
scooby_state_4005e1|16|0 441,0,1,3,0,1,1,0,1,0,0,1,0,1,3,453,
scooby_state_4005e1|40|0 437,0,0,1,1,2,1,3,1,1,1,0,0,0,1,449,
scooby_state_4005e1|52|0 435,1,0,1,0,0,4,1,0,1,0,0,1,0,1,445,
scooby_state_4005e1|6|0 436,0,1,0,1,0,0,0,0,1,1,1,1,2,1,445,
scooby_state_402359|20|18 347,8,4,9,8,9,11,4,4,10,6,3,6,6,9,444,
scooby_state_4005e1|20|0 428,1,0,0,1,0,2,2,0,0,4,1,0,0,3,442,
scooby_state_4005e1|13|0 427,2,0,1,1,0,0,0,2,1,1,1,1,2,2,441,
scooby_state_4005e1|12|0 432,1,1,0,0,0,1,0,0,2,0,0,0,1,2,440,
scooby_state_4005e1|27|0 430,0,0,1,0,1,2,0,1,1,0,2,0,0,2,440,
scooby_state_4005e1|26|0 428,0,0,1,1,0,2,1,1,1,1,2,0,1,1,440,
scooby_state_4005e1|46|0 423,2,0,2,0,0,2,6,2,0,1,0,0,0,1,439,
scooby_state_4005e1|3|0 433,0,0,0,0,0,1,1,0,1,0,0,0,1,1,438,
scooby_state_4005e1|25|0 423,1,1,2,0,2,0,0,3,4,1,1,0,0,0,438,
scooby_state_4005e1|57|0 426,2,0,1,0,0,1,0,0,4,2,0,0,0,2,438,
scooby_state_4005e1|35|0 427,0,1,2,0,2,0,0,1,1,2,1,1,0,0,438,
scooby_state_4005e1|36|0 429,0,0,2,1,0,0,2,4,0,0,0,0,0,0,438,
scooby_state_4005e1|30|0 431,0,2,1,0,0,1,0,1,0,0,1,0,0,0,437,
scooby_state_4005e1|8|0 426,0,1,1,0,1,2,2,1,2,1,0,0,0,0,437,
scooby_state_4005e1|18|0 424,0,3,1,0,0,0,1,0,0,1,2,2,1,1,436,
scooby_state_40222b|61|0 399,2,2,3,2,3,1,2,5,3,3,4,2,3,2,436,
scooby_state_4005e1|21|0 428,1,1,2,0,0,0,0,0,2,0,0,0,1,1,436,
scooby_state_40221d|32|0 404,2,3,2,2,3,2,2,1,2,2,1,2,2,6,436,
scooby_state_4005e1|34|0 425,1,0,0,1,0,0,1,0,3,1,0,1,2,0,435,
scooby_state_4005e1|9|0 422,2,0,1,2,1,0,1,0,0,1,1,2,1,1,435,
scooby_state_4005e1|55|0 425,0,1,3,0,0,0,1,0,1,0,2,1,1,0,435,
scooby_state_4005e1|44|0 416,2,2,1,0,1,0,1,1,2,0,2,2,3,1,434,
scooby_state_4005e1|39|0 415,1,1,2,0,3,2,0,1,5,0,0,2,0,0,432,
scooby_state_4005e1|54|0 421,0,1,0,0,0,1,1,1,2,2,0,1,1,1,432,
scooby_state_401d7b|29|1 3,2,5,0,2,3,3,3,0,0,3,407,0,0,0,431,
scooby_state_4005e1|61|0 414,1,1,0,2,2,1,1,2,1,2,1,1,0,2,431,
scooby_state_4005e1|17|0 424,1,0,0,1,1,0,0,1,1,0,0,0,0,2,431,
scooby_state_4005e1|10|0 421,0,1,1,1,0,0,0,0,2,1,0,1,1,1,430,
scooby_state_4005e1|51|0 414,1,2,2,1,0,0,1,0,2,0,1,1,2,2,429,
scooby_state_40222b|2|0 376,4,4,4,2,4,3,3,3,4,3,6,4,3,5,428,
scooby_state_4005e1|23|0 419,1,0,2,1,0,0,1,1,0,2,1,0,0,0,428,
scooby_state_4005e1|47|0 418,0,1,1,0,1,0,0,0,2,0,2,1,0,1,427,
scooby_state_4005e1|32|0 417,0,1,1,1,0,0,0,0,1,1,2,0,0,0,424,
scooby_state_4005e1|28|0 411,2,0,2,2,0,0,0,0,2,1,1,0,0,3,424,
scooby_state_4005e1|14|0 418,1,0,0,1,0,1,0,1,0,0,0,0,1,0,423,
scooby_state_4005cf|49|0 229,3,4,1,4,3,2,1,3,2,2,0,3,3,162,422,
scooby_state_4005e1|22|0 414,1,0,0,0,0,3,0,1,1,0,0,2,0,0,422,
scooby_state_4005e1|42|0 412,1,0,0,0,0,0,0,0,3,0,1,0,1,3,421,
scooby_state_4005e1|58|0 413,1,1,0,0,0,0,0,3,0,0,2,0,1,0,421,
scooby_state_4005e1|33|0 405,0,0,3,0,0,0,0,1,4,0,4,1,0,1,419,
scooby_state_4005e1|45|0 411,1,0,0,1,1,0,0,1,2,0,0,0,1,0,418,
scooby_state_4005e1|48|0 403,0,0,2,1,0,3,1,0,2,1,1,0,1,0,415,
scooby_state_4005e1|37|0 402,0,0,1,0,0,2,0,0,1,1,2,0,1,4,414,
scooby_state_4005e1|43|0 405,0,0,1,0,0,0,0,0,1,0,3,0,2,1,413,
scooby_state_4005e1|31|0 403,0,0,1,0,0,1,0,0,3,0,3,0,1,1,413,
scooby_state_4005e1|53|0 407,0,0,0,1,0,1,0,1,2,0,0,0,0,1,413,
scooby_state_4005e1|56|0 401,2,0,1,0,0,0,0,0,0,0,3,0,0,2,409,
scooby_state_4005e1|38|0 395,2,0,0,2,2,0,0,2,1,0,2,2,0,0,408,
scooby_state_4005e1|60|0 397,0,1,0,0,0,2,1,1,0,0,4,0,1,0,407,
scooby_state_4005cf|38|0 234,4,4,1,3,4,1,2,3,2,2,2,1,1,143,407,
scooby_state_4005e1|49|0 393,0,1,1,2,2,1,0,1,1,1,2,0,0,2,407,
scooby_state_4005e1|29|0 398,0,1,1,0,0,2,0,1,1,0,0,0,0,0,404,
scooby_state_4005cf|9|0 226,3,2,4,3,6,3,2,0,1,3,4,1,4,141,403,
scooby_state_40221d|29|0 351,4,3,3,4,4,3,3,3,3,2,6,4,3,6,402,
scooby_state_4005cf|52|0 205,4,6,7,2,2,5,4,8,2,3,8,2,4,138,400,
scooby_state_4005e1|59|0 389,1,0,2,2,0,0,1,0,3,0,0,0,1,1,400,
scooby_state_4005e1|63|0 391,1,0,1,1,0,0,3,0,0,0,1,1,1,0,400,
scooby_state_4005e1|41|0 387,0,1,3,1,0,0,1,1,1,1,0,0,3,0,399,
scooby_state_4005cf|7|0 223,3,0,1,4,1,4,1,1,3,4,4,0,4,146,399,
scooby_state_4005e1|50|0 388,0,0,0,1,0,0,1,0,1,1,0,0,2,5,399,
scooby_state_4005e1|62|0 393,0,0,0,1,0,0,0,0,1,0,2,1,0,0,398,
scooby_state_4005cf|61|0 223,2,2,1,2,1,2,0,2,0,0,3,4,4,152,398,
scooby_state_4005cf|41|0 212,1,3,2,4,2,3,0,1,2,1,3,4,2,157,397,
scooby_state_4005cf|62|0 200,4,1,2,2,4,3,1,1,1,5,2,6,3,161,396,
scooby_state_4005cf|57|0 202,1,5,2,5,2,0,2,4,4,0,3,3,4,158,395,
scooby_state_40221d|26|0 366,1,4,1,2,3,1,1,1,1,1,3,2,2,4,393,
scooby_state_4005cf|33|0 207,3,2,1,3,3,1,0,3,5,4,3,3,3,151,392,
scooby_state_4005cf|13|0 219,3,1,3,2,4,2,2,1,1,4,4,1,3,141,391,
scooby_state_4005cf|17|0 202,2,3,2,4,5,0,4,1,1,1,6,3,1,155,390,
scooby_state_4005cf|6|0 195,4,6,3,0,3,1,3,0,4,0,1,4,5,160,389,
scooby_state_4005cf|55|0 209,1,1,4,3,4,5,0,3,4,1,4,1,2,146,388,
scooby_state_4005cf|39|0 205,4,0,3,4,1,3,1,2,1,1,0,3,2,158,388,
scooby_state_4005cf|31|0 201,1,2,5,5,4,1,1,4,1,1,3,0,4,153,386,
scooby_state_4005cf|37|0 197,2,3,5,2,4,3,1,5,1,4,1,3,0,154,385,
scooby_state_4005cf|45|0 193,5,4,3,1,1,2,3,1,3,0,3,1,3,161,384,
scooby_state_4005cf|56|0 202,5,5,1,3,3,3,2,2,2,1,3,1,0,149,382,
scooby_state_40221d|1|0 320,5,5,4,7,4,4,3,3,4,3,6,5,2,6,381,
scooby_state_4005cf|63|0 204,3,0,1,2,0,1,0,4,4,3,6,1,3,147,379,
scooby_state_4005cf|11|0 184,8,1,2,1,6,4,3,4,0,1,6,1,3,153,377,
scooby_state_4005cf|4|0 195,1,5,3,2,1,3,2,2,5,4,4,2,3,145,377,
scooby_state_4005cf|25|0 197,2,1,3,3,1,2,1,1,1,4,3,3,2,152,376,
scooby_state_4005cf|29|0 202,3,2,2,2,1,0,2,1,4,1,0,3,3,150,376,
scooby_state_4005cf|36|0 197,5,3,1,2,2,5,2,3,4,3,3,2,2,142,376,
scooby_state_4005cf|12|0 187,4,3,3,1,2,3,0,5,4,4,6,3,1,149,375,
scooby_state_4005cf|1|0 198,1,3,5,4,3,0,1,1,1,2,0,1,5,150,375,
scooby_state_4005cf|15|0 190,5,2,5,1,6,0,0,3,3,1,1,2,7,148,374,
scooby_state_4005cf|48|0 188,6,2,2,1,4,6,3,1,2,2,1,1,4,151,374,
scooby_state_4005cf|44|0 178,3,3,3,3,3,0,2,2,4,6,7,2,3,155,374,
scooby_state_4005cf|53|0 179,1,4,5,1,4,4,1,3,5,1,3,2,3,157,373,
scooby_state_4005cf|50|0 199,3,2,4,2,2,4,3,2,0,4,3,2,1,142,373,
scooby_state_4005cf|47|0 194,1,1,3,4,2,4,3,2,5,2,5,2,2,142,372,
scooby_state_4005cf|2|0 198,3,6,2,2,1,5,3,2,3,4,6,1,3,131,370,
scooby_state_4005cf|10|0 210,3,2,0,4,1,1,3,4,2,4,4,2,1,128,369,
scooby_state_4005cf|42|0 188,4,1,1,1,3,3,3,3,3,2,2,2,3,150,369,
scooby_state_4005cf|21|0 205,4,4,2,2,1,2,5,0,2,2,0,5,4,131,369,
scooby_state_4005cf|8|0 183,0,2,4,1,5,2,3,2,3,2,6,5,3,147,368,
scooby_state_4005cf|46|0 183,1,2,1,3,7,2,2,2,0,2,1,2,1,158,367,
scooby_state_4005cf|40|0 194,1,5,5,3,3,5,0,0,6,1,4,1,3,136,367,
scooby_state_4005cf|59|0 193,5,5,4,4,2,1,2,3,2,3,4,5,2,132,367,
scooby_state_4005cf|51|0 189,5,3,1,4,1,2,0,1,2,3,5,2,4,144,366,
scooby_state_4005cf|32|0 184,2,3,3,1,2,2,2,2,2,1,2,2,2,156,366,
scooby_state_4005cf|0|0 199,3,5,4,3,3,1,5,1,4,1,3,7,1,125,365,
scooby_state_4005cf|5|0 192,4,3,2,4,1,1,0,2,2,1,3,3,2,144,364,
scooby_state_40222b|58|0 329,2,2,3,2,3,2,1,1,3,3,4,2,2,3,362,
scooby_state_40221d|40|0 329,2,2,2,3,3,2,3,1,2,2,1,3,1,3,359,
scooby_state_4005cf|58|0 178,2,4,3,2,4,4,3,4,3,5,2,1,0,139,354,
scooby_state_40221d|15|0 339,0,1,1,1,1,3,1,0,0,0,2,1,1,2,353,
scooby_state_402221|54|0 284,3,5,5,5,4,3,4,5,4,4,7,5,5,8,351,
scooby_state_4005cf|60|0 194,8,2,1,3,0,2,3,6,2,1,1,1,5,121,350,
scooby_state_4005cf|22|0 190,3,1,4,4,3,1,3,2,3,3,4,6,7,115,349,
scooby_state_4005cf|23|0 193,4,5,3,1,0,1,4,3,1,2,1,3,5,123,349,
scooby_state_4005cf|27|0 189,2,3,4,1,4,3,5,1,2,0,3,0,2,130,349,
scooby_state_4005cf|20|0 185,4,5,2,1,3,3,1,0,0,6,2,2,4,129,347,
scooby_state_4005cf|54|0 192,4,4,2,4,3,3,6,1,3,0,1,2,1,120,346,
scooby_state_4005cf|35|0 175,7,0,3,3,0,2,3,4,2,2,3,3,1,137,345,
scooby_state_4005cf|30|0 170,5,3,3,3,3,3,0,2,1,0,5,5,3,136,342,
scooby_state_4005cf|28|0 179,3,7,0,2,1,4,1,3,1,2,4,1,6,126,340,
scooby_state_402221|30|0 280,5,4,5,5,3,4,4,5,3,3,6,2,4,7,340,
scooby_state_4005cf|3|0 174,2,2,4,3,0,0,3,2,2,1,0,3,2,142,340,
scooby_state_402359|63|37 308,0,2,0,1,1,0,1,1,0,0,15,3,0,7,339,
scooby_state_4005cf|34|0 168,8,5,1,0,3,3,7,2,1,2,1,2,4,131,338,
scooby_state_4005cf|43|0 176,3,6,5,3,2,1,4,0,2,1,2,3,3,126,337,
scooby_state_4005cf|14|0 178,3,3,2,2,2,2,2,0,3,1,1,4,3,128,334,
scooby_state_40222b|36|0 293,2,4,3,3,2,2,2,3,2,2,7,3,2,4,334,
scooby_state_4005cf|16|0 179,2,3,1,4,6,2,3,1,2,4,3,2,5,117,334,
scooby_state_4005cf|19|0 166,1,1,4,1,3,5,4,6,4,2,4,3,3,125,332,
scooby_state_4005cf|26|0 178,1,2,3,2,0,2,3,2,3,2,1,1,3,126,329,
scooby_state_4005f2|55|0 221,3,3,4,4,3,0,1,0,0,3,2,4,6,73,327,
scooby_state_401db4|28|0 327,0,0,0,0,0,0,0,0,0,0,0,0,0,0,327,
scooby_state_40222b|59|0 296,1,3,2,1,3,2,1,1,2,2,5,1,3,4,327,
scooby_state_40221d|46|0 310,0,1,2,3,1,1,0,1,0,1,1,2,0,3,326,
scooby_state_4005cf|18|0 178,3,3,3,1,3,0,1,1,3,2,3,2,5,114,322,
scooby_state_402221|63|0 287,2,1,2,3,2,2,2,2,2,2,3,3,4,5,322,
scooby_state_4005cf|24|0 157,2,2,1,3,0,5,0,6,2,0,2,5,3,132,320,
scooby_state_4005f2|49|0 217,2,2,2,4,1,1,6,4,0,3,2,0,2,69,315,
scooby_state_40221d|24|0 288,2,3,1,2,2,1,1,1,2,2,2,2,1,4,314,
scooby_state_402221|46|0 272,2,3,3,2,2,2,2,2,2,2,6,2,3,4,309,
scooby_state_4005f2|63|0 196,5,3,5,3,1,3,3,2,3,2,2,1,6,74,309,
scooby_state_4005f2|62|0 194,2,6,2,4,5,2,4,1,3,2,2,4,3,73,307,
scooby_state_4005f2|59|0 198,1,4,0,2,3,3,7,3,3,3,2,2,3,73,307,
scooby_state_40222b|9|0 277,2,2,2,1,3,2,1,2,1,2,6,1,3,2,307,
scooby_state_4005f2|53|0 220,2,4,1,7,4,4,0,2,0,2,1,2,0,54,303,
scooby_state_4005f2|57|0 211,4,4,3,0,3,2,2,2,2,0,1,1,3,65,303,
scooby_state_40221d|38|0 266,5,3,2,2,1,2,1,2,5,2,1,3,2,4,301,
scooby_state_40221d|10|0 269,2,3,2,3,2,2,2,1,2,1,4,3,2,3,301,
scooby_state_4005f2|37|0 208,4,1,2,5,3,5,5,0,1,0,4,5,3,51,297,
scooby_state_402359|40|40 203,5,8,6,8,8,8,5,5,5,4,11,5,8,3,292,
scooby_state_40221d|30|0 264,2,2,2,2,1,2,1,1,2,2,2,3,1,4,291,
scooby_state_4005f2|61|0 186,2,3,3,2,3,1,0,0,3,1,4,4,5,66,283,
scooby_state_4005f2|45|0 199,3,3,3,3,1,1,4,0,1,1,4,2,3,53,281,
scooby_state_401d7b|58|1 2,1,2,0,1,2,2,2,1,1,2,264,0,0,0,280,
scooby_state_402221|49|0 214,4,4,5,4,4,4,4,4,4,4,5,5,5,8,278,
scooby_state_4005f2|17|0 174,2,2,1,2,1,6,1,2,2,4,2,4,1,74,278,
scooby_state_4005f2|54|0 177,5,3,7,1,0,2,2,0,2,0,2,1,0,73,275,
scooby_state_4005f2|58|0 173,1,3,1,6,3,2,1,0,5,2,2,5,5,66,275,
scooby_state_4005f2|36|0 182,2,4,4,3,1,2,0,1,1,2,5,2,3,62,274,
scooby_state_4005f2|9|0 200,2,3,2,0,3,6,0,1,2,0,1,2,0,52,274,
scooby_state_4005f2|41|0 191,1,5,3,1,2,0,2,1,2,0,4,0,3,56,271,
scooby_state_4005f2|60|0 180,2,5,3,1,1,0,3,3,3,1,1,2,1,65,271,
scooby_state_4005f2|44|0 176,2,3,1,1,5,5,0,3,4,0,2,2,4,63,271,
scooby_state_4005f2|56|0 159,3,1,5,3,3,4,3,4,1,1,4,4,2,72,269,
scooby_state_40221d|33|0 241,2,3,1,2,2,2,1,1,2,1,3,3,2,3,269,
scooby_state_4005f2|48|0 185,2,3,1,2,4,5,1,0,1,1,4,2,2,55,268,
scooby_state_4005f2|13|0 196,3,2,1,2,1,5,4,2,1,1,5,1,1,43,268,
scooby_state_4005f2|29|0 189,2,2,0,0,2,2,2,2,4,3,1,2,1,55,267,
scooby_state_4005f2|25|0 192,3,1,1,1,2,3,1,4,3,1,1,2,0,52,267,
scooby_state_40221d|18|0 226,4,3,2,4,2,2,2,1,4,3,3,4,2,3,265,
scooby_state_4005f2|51|0 165,1,0,1,6,3,1,1,2,1,5,2,1,2,72,263,
scooby_state_401db4|39|0 262,0,0,0,0,0,0,0,0,0,0,0,0,0,0,262,
scooby_state_40221d|36|0 230,1,1,3,2,3,3,3,1,2,2,3,2,2,3,261,
scooby_state_402359|19|13 206,2,8,2,3,2,3,2,3,4,2,7,6,5,5,260,
scooby_state_40222b|0|0 229,2,2,3,2,3,2,2,2,2,2,3,2,1,3,260,
scooby_state_4005f2|46|0 164,4,2,2,1,4,1,4,5,1,3,3,2,0,62,258,
scooby_state_40221d|54|0 234,2,1,1,2,1,1,1,2,1,1,3,2,1,3,256,
scooby_state_40222b|33|0 229,1,2,2,2,2,2,1,2,1,1,4,1,3,2,255,
scooby_state_4005f2|52|0 154,1,0,3,2,2,3,1,2,4,3,4,4,7,63,253,
scooby_state_4005f2|47|0 179,3,2,3,1,1,1,1,2,2,2,2,1,3,49,252,
scooby_state_4005f2|1|0 157,5,2,1,0,2,2,0,2,2,5,0,4,1,69,252,
scooby_state_4005f2|43|0 166,1,2,1,1,2,1,3,4,3,0,4,5,3,55,251,
scooby_state_4005f2|5|0 171,1,0,3,2,5,3,5,1,1,3,2,3,3,47,250,
scooby_state_4005f2|20|0 166,2,1,3,0,4,0,3,2,1,1,1,2,3,60,249,
scooby_state_40221d|51|0 220,2,2,1,2,2,2,2,1,2,1,2,2,2,3,246,
scooby_state_402412|20|0 127,8,8,8,8,7,8,8,8,7,8,8,8,8,16,245,
scooby_state_402221|38|0 209,3,2,3,2,2,2,2,2,2,2,4,2,3,5,245,
scooby_state_4005f2|50|0 152,5,2,0,2,2,3,2,5,2,4,4,1,2,59,245,
scooby_state_40222b|47|0 217,2,2,2,2,1,2,1,1,2,2,3,2,1,3,243,
scooby_state_402221|10|0 207,4,2,3,2,3,2,2,2,2,2,3,2,3,4,243,
scooby_state_40222b|54|0 217,2,2,2,2,2,2,1,2,1,1,3,2,2,2,243,
scooby_state_40222b|30|0 216,1,3,2,1,3,3,1,2,1,1,2,1,3,3,243,
scooby_state_401d7b|40|1 1,1,3,0,1,0,2,2,1,1,1,228,1,0,0,242,
scooby_state_4005f2|7|0 166,1,2,3,3,2,4,4,5,2,2,3,1,6,38,242,
scooby_state_401c58|42|0 5,5,5,5,5,5,10,9,5,10,10,152,6,5,5,242,
scooby_state_4005f2|4|0 159,3,1,3,3,2,2,0,2,0,4,2,2,1,58,242,
scooby_state_40222b|5|0 199,2,4,2,4,2,3,3,2,2,2,5,4,2,5,241,
scooby_state_40221d|28|0 214,2,2,1,2,2,1,1,1,2,2,2,2,2,3,239,
scooby_state_402221|51|0 203,2,3,3,2,3,2,2,1,2,2,4,2,3,5,239,
scooby_state_40222b|1|0 212,1,1,2,2,2,1,2,3,1,1,3,2,3,3,239,
scooby_state_40221d|12|0 220,0,0,1,2,2,1,3,1,0,2,2,1,0,3,238,
scooby_state_4005f2|33|0 149,4,0,1,4,3,2,0,3,1,3,1,2,1,64,238,
scooby_state_40221d|49|0 221,0,2,2,0,2,2,2,1,0,0,1,0,1,3,237,
scooby_state_4005f2|34|0 167,4,1,3,1,2,1,4,2,0,3,4,1,0,44,237,
scooby_state_401d77|54|1 1,1,2,0,2,0,1,0,1,1,2,226,0,0,0,237,
scooby_state_4005f2|31|0 157,5,1,0,0,1,3,1,2,2,4,0,1,2,57,236,
scooby_state_402108|59|0 234,1,1,0,0,0,0,0,0,0,0,0,0,0,0,236,
scooby_state_401f00|35|0 75,16,12,13,14,14,12,16,12,5,7,4,12,13,10,235,
scooby_state_4005f2|15|0 155,3,3,1,0,3,3,2,2,4,1,3,3,5,47,235,
scooby_state_4005f2|39|0 154,0,1,0,3,4,0,1,0,2,1,3,2,2,62,235,
scooby_state_40221d|16|0 216,0,1,0,2,2,0,2,1,0,2,3,1,1,2,233,
scooby_state_401db4|57|0 232,0,0,0,0,0,0,0,0,0,0,0,0,0,0,232,
scooby_state_4005f2|35|0 157,3,8,2,2,1,1,1,1,3,1,3,5,0,44,232,
scooby_state_4005f2|23|0 154,1,1,2,1,4,1,0,1,0,2,4,2,2,56,231,
scooby_state_4005f2|26|0 148,5,3,6,1,1,2,2,1,1,2,5,5,1,48,231,
scooby_state_4005f2|28|0 148,4,2,3,6,4,0,3,1,0,3,3,2,4,48,231,
scooby_state_4005f2|30|0 157,2,3,1,2,4,2,0,1,3,1,2,3,3,47,231,
scooby_state_402221|42|0 194,2,3,3,3,3,2,2,2,2,2,2,3,3,4,230,
scooby_state_4005f2|40|0 155,0,1,4,2,0,1,2,1,1,0,1,3,3,54,228,
scooby_state_402221|0|0 215,2,1,1,1,0,0,0,1,0,1,2,1,1,1,227,
scooby_state_40221d|6|0 218,0,1,1,1,1,1,0,0,0,0,1,1,1,0,226,
scooby_state_402379|1|0 121,9,8,8,7,8,8,7,7,7,8,7,7,6,7,225,
scooby_state_4005f2|21|0 162,2,1,3,1,0,1,2,0,0,0,1,1,0,51,225,
scooby_state_40222b|16|0 197,2,2,1,2,2,2,1,2,2,1,3,2,2,2,223,
scooby_state_4005f2|22|0 154,1,2,3,1,1,3,2,0,2,1,2,0,2,49,223,
scooby_state_4005f2|2|0 147,2,3,2,0,1,3,1,5,2,1,1,3,6,46,223,
scooby_state_4005f2|0|0 151,4,2,3,1,3,1,1,2,0,2,3,1,2,46,222,
scooby_state_40221d|20|0 206,1,1,2,0,1,1,0,2,1,0,1,1,1,3,221,
scooby_state_4005f2|3|0 160,0,0,1,1,1,4,2,1,1,0,2,1,2,45,221,
scooby_state_401d7b|42|1 0,0,4,0,0,1,2,0,0,0,4,210,0,0,0,221,
scooby_state_40221d|43|0 196,1,2,0,1,2,2,2,2,1,2,2,3,1,3,220,
scooby_state_4005f2|12|0 158,0,0,2,3,2,0,2,1,1,0,4,4,4,39,220,
scooby_state_401d7b|51|1 3,1,1,0,2,2,0,2,0,0,3,205,0,0,0,219,
scooby_state_401db4|38|0 218,0,0,0,0,0,0,0,0,0,0,0,0,0,0,218,
scooby_state_4005f2|19|0 149,0,3,1,2,0,1,2,2,1,3,4,2,0,47,217,
scooby_state_4005f2|24|0 136,1,3,2,1,1,3,2,2,3,3,1,3,3,50,214,
scooby_state_4005f2|42|0 132,1,2,7,3,2,1,1,2,1,1,1,1,1,56,212,
scooby_state_401d7b|34|1 1,0,1,0,0,1,2,0,0,0,4,203,0,0,0,212,
scooby_state_4005f2|27|0 156,2,2,1,3,0,0,0,2,0,2,1,4,1,38,212,
scooby_state_40221d|19|0 202,1,1,0,1,1,1,0,0,0,1,1,1,0,1,211,
scooby_state_40221d|25|0 174,4,2,2,2,2,2,2,3,3,3,3,3,2,3,210,
scooby_state_4005f2|11|0 141,4,2,2,2,2,3,1,0,2,0,2,2,1,46,210,
scooby_state_40222b|21|0 186,1,0,3,1,1,1,2,2,1,3,2,2,2,3,210,
scooby_state_4005f2|38|0 138,1,1,4,1,3,1,4,0,2,1,1,1,2,49,209,
scooby_state_401db4|27|0 209,0,0,0,0,0,0,0,0,0,0,0,0,0,0,209,
scooby_state_4005f2|6|0 139,5,0,1,2,2,2,4,1,0,2,1,1,0,47,207,
scooby_state_4005f2|18|0 137,3,3,2,1,1,2,3,1,1,1,1,3,0,47,206,
scooby_state_4005f2|32|0 139,2,3,3,1,3,3,1,1,2,3,1,1,1,41,205,
scooby_state_402221|31|0 188,0,1,1,1,2,1,0,3,0,0,1,1,2,4,205,
scooby_state_40222b|28|0 175,1,2,2,2,2,1,2,1,2,2,4,2,2,3,203,
scooby_state_402359|22|10 178,3,0,2,3,0,5,2,1,0,1,0,1,3,3,202,
scooby_state_402359|47|39 149,4,5,4,3,2,4,6,3,2,6,3,1,3,6,201,
scooby_state_40221d|58|0 180,2,1,1,2,1,1,1,1,2,1,2,2,1,2,200,
scooby_state_402359|26|26 171,3,0,0,1,1,6,1,0,2,3,0,2,4,5,199,
scooby_state_401d7b|39|1 1,0,2,0,1,1,1,1,0,0,2,189,0,0,0,198,
scooby_state_4005f2|14|0 140,1,7,2,1,2,1,0,1,2,1,1,1,1,36,197,
scooby_state_40222b|17|0 186,1,1,1,0,1,1,0,0,1,1,1,0,1,1,196,
scooby_state_4005f2|16|0 140,0,1,2,1,2,1,3,1,2,1,2,3,3,34,196,
scooby_state_40222b|40|0 186,1,1,1,0,0,0,0,1,0,1,3,0,1,0,195,
scooby_state_402359|22|1 150,5,4,4,3,5,4,3,2,3,5,2,3,1,1,195,
scooby_state_401d7b|45|1 1,0,1,0,0,1,0,1,0,1,0,188,0,0,0,193,
scooby_state_401de4|20|0 193,0,0,0,0,0,0,0,0,0,0,0,0,0,0,193,
scooby_state_401d77|21|1 0,1,1,0,1,0,0,1,1,0,4,183,0,0,0,192,
scooby_state_4005f2|10|0 123,1,2,1,2,1,1,0,4,1,4,3,0,4,45,192,
scooby_state_401db4|41|0 191,0,0,0,0,0,0,0,0,0,0,0,0,0,0,191,
scooby_state_402359|11|10 178,0,1,1,1,0,0,0,1,0,0,0,1,1,5,189,
scooby_state_402359|58|12 136,4,3,6,3,4,3,2,4,2,4,8,3,3,3,188,
scooby_state_402359|22|11 154,1,5,2,1,1,1,0,2,1,1,5,3,5,6,188,
scooby_state_401d7b|28|1 1,0,3,0,0,3,1,0,0,0,2,178,0,0,0,188,
scooby_state_401db4|50|0 187,0,0,0,0,0,0,0,0,0,0,0,0,0,0,187,
scooby_state_402359|46|8 150,4,1,2,0,2,2,4,0,3,3,5,3,2,4,185,
scooby_state_402359|30|23 159,2,2,5,2,3,1,1,2,2,1,0,2,0,3,185,
scooby_state_402221|26|0 173,1,0,1,1,1,0,0,1,0,0,2,1,1,2,184,
scooby_state_40222b|25|0 160,1,2,1,1,2,2,1,1,2,2,2,1,2,3,183,
scooby_state_401d7b|52|1 1,1,2,0,1,1,1,0,0,0,2,173,0,0,0,182,
scooby_state_401d7b|20|1 1,0,0,0,1,3,0,1,0,0,2,173,0,0,0,181,
scooby_state_4005f2|8|0 122,1,3,2,0,3,0,1,2,2,2,1,0,0,40,179,
scooby_state_401d7b|22|0 1,0,1,0,0,0,1,1,0,1,2,170,0,1,0,178,
scooby_state_401c5c|28|0 73,4,6,6,5,7,11,9,13,8,4,7,9,11,4,177,
scooby_state_402221|33|0 143,4,2,3,2,2,2,2,2,2,2,3,2,2,4,177,
scooby_state_401d77|45|0 1,1,1,0,0,1,0,0,1,1,3,167,0,0,0,176,
scooby_state_401c58|17|0 0,5,5,5,5,4,5,0,5,5,5,117,5,5,4,175,
scooby_state_402359|60|38 132,2,2,4,1,3,3,3,2,4,3,8,3,3,2,175,
scooby_state_402359|46|42 91,5,3,5,5,6,6,4,5,6,7,6,7,7,9,172,
scooby_state_402359|63|17 99,6,6,10,4,5,3,4,5,6,1,3,5,7,7,171,
scooby_state_402221|6|0 139,2,2,3,2,2,2,2,2,2,2,4,2,2,3,171,
scooby_state_401d50|21|-1 142,0,1,1,1,3,1,1,0,2,2,4,2,2,9,171,
scooby_state_401db4|33|0 167,0,0,0,0,0,0,0,0,0,0,0,0,0,1,168,
scooby_state_401d50|1|-1 139,1,2,3,1,1,3,2,0,2,1,3,1,2,7,168,
scooby_state_401d7b|17|0 0,0,0,0,0,2,1,0,0,0,3,161,0,0,0,167,
scooby_state_402359|16|10 143,1,1,3,4,1,1,1,0,2,1,1,3,3,2,167,
scooby_state_402359|46|24 143,3,3,1,4,0,1,2,1,0,1,3,0,1,3,166,
scooby_state_402221|1|0 157,1,0,1,1,0,0,0,0,0,0,2,1,1,1,165,
scooby_state_40221d|11|0 126,4,2,2,4,2,2,2,3,3,3,3,3,2,4,165,
scooby_state_402359|50|34 114,5,1,5,2,2,4,5,1,2,3,8,2,4,7,165,
scooby_state_401d7b|1|1 2,1,0,0,0,1,0,2,0,0,0,158,0,0,0,164,
scooby_state_40222b|14|0 125,1,3,2,3,3,3,3,2,2,2,4,3,3,4,163,
scooby_state_402359|60|49 119,5,3,2,5,3,2,2,2,3,5,4,4,1,3,163,
scooby_state_402359|48|26 124,1,3,3,2,4,2,3,1,3,4,2,3,6,2,163,
scooby_state_401d7b|11|1 0,0,3,0,0,3,2,0,0,0,2,152,0,0,0,162,
scooby_state_401d7b|40|0 0,0,3,1,0,1,2,0,0,0,1,154,0,0,0,162,
scooby_state_401d50|47|-1 140,0,0,2,0,0,2,2,0,4,1,1,0,1,9,162,
scooby_state_402359|56|34 143,1,2,3,0,2,2,1,1,0,0,4,0,1,1,161,
scooby_state_401d7b|43|0 1,2,2,0,2,0,1,0,1,0,0,150,0,0,0,159,
scooby_state_401d7b|62|0 0,0,1,0,0,0,0,1,1,1,2,152,0,0,0,158,
scooby_state_401d77|34|1 0,0,0,0,0,1,0,0,0,0,1,155,1,0,0,158,
scooby_state_401c58|39|0 0,5,4,5,5,4,4,0,6,4,5,104,3,5,4,158,
scooby_state_402359|22|17 104,3,2,4,2,2,5,3,8,3,5,0,4,6,5,156,
scooby_state_402221|29|0 125,2,2,3,2,2,2,2,2,2,2,3,2,1,3,155,
scooby_state_401de4|53|0 153,0,0,0,0,0,0,0,0,0,0,0,0,0,0,153,
scooby_state_4021ce|4|0 13,9,10,9,9,10,10,11,10,15,12,8,6,6,15,153,
scooby_state_402359|58|8 103,3,4,4,3,4,2,4,3,3,3,3,4,4,5,152,
scooby_state_402221|25|-5 123,2,1,1,1,3,1,1,1,1,1,3,1,4,7,151,
scooby_state_402359|21|9 113,2,3,2,4,5,2,5,0,3,1,6,4,0,1,151,
scooby_state_401db4|19|0 150,0,0,0,0,0,0,0,0,0,0,0,0,0,0,150,
scooby_state_401db0|16|1 1,2,4,0,3,1,1,1,3,2,1,2,2,4,122,149,
scooby_state_401c58|28|0 2,5,2,5,5,3,6,6,5,7,6,86,3,5,3,149,
scooby_state_4005eb|23|1 88,4,5,2,4,5,4,2,2,1,0,1,4,2,24,148,
scooby_state_4005eb|36|1 81,3,2,2,7,5,1,2,2,4,3,3,3,2,28,148,
scooby_state_401d50|15|-2 123,0,0,1,1,1,1,0,1,1,2,2,1,1,13,148,
scooby_state_402359|42|20 113,2,2,3,2,4,3,5,0,3,0,0,4,2,5,148,
scooby_state_402359|53|42 124,2,2,1,3,0,2,0,1,3,0,1,1,0,7,147,
scooby_state_4005eb|48|1 87,1,1,4,4,4,1,6,3,3,3,4,4,3,19,147,
scooby_state_4005eb|18|1 90,4,4,6,3,3,6,2,1,1,1,0,2,1,23,147,
scooby_state_4005eb|6|1 90,3,4,3,2,2,0,3,2,5,2,4,1,4,22,147,
scooby_state_4005eb|57|1 93,5,2,3,3,0,3,1,2,1,4,6,0,0,24,147,
scooby_state_4005c4|26|1 88,3,3,1,1,4,2,4,1,2,0,1,4,2,31,147,
scooby_state_4005eb|63|1 88,4,4,3,3,4,4,3,2,4,4,3,4,2,15,147,
scooby_state_4005eb|47|1 86,2,4,6,5,5,2,4,2,1,3,6,3,4,14,147,
scooby_state_4005eb|43|1 94,4,0,3,2,2,4,2,3,2,2,4,3,6,16,147,
scooby_state_4005eb|45|1 88,2,4,2,8,0,3,1,2,2,4,4,7,4,16,147,
scooby_state_4005c4|49|1 86,1,4,3,3,1,4,1,2,2,1,0,4,4,31,147,
scooby_state_4005c4|14|1 86,2,3,3,2,2,2,3,3,2,4,2,0,3,30,147,
scooby_state_4005c4|47|1 74,6,4,2,3,5,2,3,2,1,3,4,5,2,30,146,
scooby_state_4005eb|5|1 87,3,5,1,0,6,6,2,0,4,3,3,4,4,18,146,
scooby_state_4005c4|24|1 84,2,2,4,1,5,3,2,2,1,2,0,2,3,33,146,
scooby_state_4005c4|31|1 85,0,3,3,3,1,3,4,1,2,4,4,4,1,28,146,
scooby_state_4005eb|12|1 81,2,4,7,2,1,2,1,3,2,5,3,3,2,28,146,
scooby_state_4005eb|27|1 84,4,2,2,4,5,2,4,1,2,2,2,3,2,27,146,
scooby_state_401d7b|52|0 1,1,2,0,1,1,1,1,0,0,2,136,0,0,0,146,
scooby_state_4005c4|22|1 92,4,3,4,2,2,3,0,0,3,2,1,2,3,25,146,
scooby_state_4005c4|58|1 94,2,3,0,3,1,3,0,1,1,0,2,5,4,27,146,
scooby_state_4005eb|25|1 71,2,2,3,5,1,7,3,4,3,2,3,4,3,33,146,
scooby_state_401d81|44|-1 124,2,1,1,2,0,1,2,1,2,1,1,2,1,5,146,
scooby_state_4005c4|37|1 88,4,3,3,0,1,1,3,3,4,2,2,4,2,26,146,
scooby_state_4005c4|2|1 90,4,1,3,3,2,2,2,3,4,2,3,2,4,21,146,
scooby_state_402359|46|19 86,4,4,5,6,7,1,4,4,4,1,2,8,6,4,146,
scooby_state_4005eb|62|1 79,2,4,4,4,5,2,5,4,3,2,1,2,2,27,146,
scooby_state_4005c4|17|1 90,2,0,2,3,3,2,3,2,1,3,2,2,1,30,146,
scooby_state_4005c4|18|1 87,4,1,3,2,5,2,4,1,2,3,4,1,7,20,146,
scooby_state_4005c4|9|1 83,2,2,5,2,3,2,1,1,4,3,1,3,4,30,146,
scooby_state_4005c4|10|1 85,4,2,3,1,1,2,1,2,3,2,3,2,2,33,146,
scooby_state_4005c4|40|1 81,4,1,5,4,2,3,3,3,0,2,3,4,4,27,146,
scooby_state_4005eb|24|1 77,1,4,4,4,2,1,2,3,3,5,1,3,5,31,146,
scooby_state_4005c4|35|1 86,1,2,3,2,2,2,3,1,1,2,3,4,6,28,146,
scooby_state_4005eb|8|1 81,5,4,2,4,6,2,1,3,3,5,1,0,1,28,146,
scooby_state_4005c4|36|1 76,2,4,2,3,3,1,5,2,0,1,0,3,2,42,146,
scooby_state_401f95|34|0 8,8,6,10,10,12,11,11,11,7,6,10,9,8,19,146,
scooby_state_4005eb|30|1 80,0,5,4,1,3,2,6,2,3,2,0,8,2,27,145,
scooby_state_4005c4|42|1 83,5,2,2,6,2,2,3,2,1,2,0,2,4,29,145,
scooby_state_4005eb|51|1 89,4,2,3,1,4,3,2,1,2,3,3,2,4,22,145,
scooby_state_4005eb|32|1 87,2,2,3,2,0,0,4,3,2,4,7,7,2,20,145,
scooby_state_4005eb|33|1 89,1,4,4,3,3,4,1,3,2,0,3,2,3,23,145,
scooby_state_4005c4|29|1 84,3,1,3,3,2,1,2,5,1,1,4,3,4,28,145,
scooby_state_4005eb|4|1 82,3,1,4,2,5,3,1,1,0,2,5,3,2,31,145,
scooby_state_4005c4|34|1 86,3,0,1,1,1,2,1,2,1,3,2,3,5,34,145,
scooby_state_4005eb|14|1 86,3,6,4,1,3,2,1,3,2,1,4,5,0,24,145,
scooby_state_4005eb|9|1 81,5,1,4,1,2,3,3,3,0,4,3,1,5,29,145,
scooby_state_4005c4|56|1 77,2,4,2,2,4,0,4,2,3,1,3,4,3,34,145,
scooby_state_4005eb|16|1 82,7,3,4,3,1,3,3,0,3,5,4,2,3,22,145,
scooby_state_4005eb|42|1 77,1,5,7,4,2,4,3,4,3,2,2,4,2,25,145,
scooby_state_4005eb|2|1 89,1,2,5,3,2,1,3,1,1,1,5,4,3,24,145,
scooby_state_4005eb|58|1 88,1,1,4,1,3,4,4,2,3,4,2,3,2,23,145,
scooby_state_4005eb|54|1 94,4,1,6,0,2,4,2,3,0,1,1,1,2,24,145,
scooby_state_4005eb|1|1 78,1,5,3,2,3,2,1,3,3,4,3,1,3,33,145,
scooby_state_4005c4|63|1 80,2,7,0,1,3,2,4,2,4,2,2,3,1,32,145,
scooby_state_4005eb|11|1 74,6,7,4,2,1,2,6,4,4,1,5,4,1,24,145,
scooby_state_4005c4|57|1 81,2,3,4,2,0,5,2,4,1,4,1,4,6,26,145,
scooby_state_402359|63|5 110,3,3,3,2,4,4,0,1,2,2,3,3,3,2,145,
scooby_state_4005c4|3|1 77,3,1,1,5,5,3,4,3,3,1,3,3,4,29,145,
scooby_state_4005eb|31|1 91,3,4,3,2,3,2,1,3,4,2,6,3,4,14,145,
scooby_state_4005c4|15|1 85,2,4,3,3,1,4,1,4,2,1,4,0,2,29,145,
scooby_state_4005c4|6|1 84,2,1,2,1,5,1,3,3,1,0,4,4,1,33,145,
scooby_state_4005c4|5|1 84,3,2,3,4,2,2,2,3,1,2,2,1,3,31,145,
scooby_state_4005eb|29|1 79,6,2,1,2,1,3,4,6,1,4,4,3,4,25,145,
scooby_state_4005eb|15|1 88,5,3,3,1,4,2,0,0,0,3,4,1,2,29,145,
scooby_state_4005eb|50|1 71,3,4,7,3,4,2,1,4,4,0,4,3,5,30,145,
scooby_state_4005eb|34|1 81,5,2,5,2,6,1,3,1,1,2,6,2,2,26,145,
scooby_state_4005eb|7|1 78,4,4,1,2,3,4,4,1,2,1,1,5,5,30,145,
scooby_state_401d50|27|-2 123,1,1,1,1,1,1,1,0,1,1,2,1,1,9,145,
scooby_state_4005c4|54|1 86,3,2,4,1,4,4,3,3,4,3,0,1,3,24,145,
scooby_state_4005eb|21|1 89,2,5,1,4,2,3,1,3,1,1,2,3,1,26,144,
scooby_state_401d7b|41|0 1,1,1,1,1,1,0,1,0,0,1,136,0,0,0,144,
scooby_state_4005eb|56|1 81,4,0,6,5,5,3,4,0,1,3,1,2,6,23,144,
scooby_state_4005c4|1|1 84,1,2,1,3,3,5,2,5,2,2,2,1,1,30,144,
scooby_state_4005c4|43|1 81,2,3,5,1,2,1,3,5,3,1,2,2,3,30,144,
scooby_state_4005eb|38|1 90,0,2,2,2,4,1,1,3,1,1,4,3,3,27,144,
scooby_state_40222b|46|0 122,2,2,1,1,2,2,1,1,1,1,3,1,2,2,144,
scooby_state_402221|57|0 112,4,2,3,1,2,2,2,2,2,1,3,2,3,3,144,
scooby_state_4005eb|26|1 90,4,1,1,4,1,3,7,3,3,1,5,4,4,13,144,
scooby_state_4005eb|35|1 81,4,3,2,1,6,4,2,1,1,2,4,6,7,20,144,
scooby_state_4005eb|19|1 82,3,6,3,2,2,2,2,3,3,4,4,4,3,21,144,
scooby_state_4005eb|3|1 78,3,3,5,1,3,4,4,1,7,3,1,3,4,24,144,
scooby_state_4005eb|59|1 83,2,0,3,3,2,1,1,3,2,2,6,4,4,28,144,
scooby_state_4005eb|41|1 76,4,7,7,2,5,5,3,5,1,5,1,4,0,19,144,
scooby_state_4005eb|20|1 91,5,4,3,7,1,1,2,3,1,3,1,2,5,15,144,
scooby_state_4005eb|10|1 95,1,4,4,4,1,6,0,1,2,1,1,1,3,20,144,
scooby_state_4005c4|61|1 87,1,3,2,2,2,2,5,1,5,3,2,3,3,23,144,
scooby_state_4005c4|53|1 97,1,6,1,2,4,2,0,3,0,3,1,2,2,20,144,
scooby_state_4005c4|51|1 92,1,3,2,4,4,0,2,3,3,5,4,1,0,20,144,
scooby_state_4005eb|22|1 91,1,4,2,2,3,0,2,1,2,1,3,5,1,26,144,
scooby_state_4005eb|55|1 89,3,5,3,7,2,3,0,3,2,1,2,4,2,18,144,
scooby_state_4005c4|11|1 78,7,3,2,3,2,3,4,1,1,2,4,1,5,28,144,
scooby_state_4005eb|37|1 78,4,3,5,5,1,4,4,5,5,1,0,2,2,25,144,
scooby_state_4005c4|4|1 80,5,3,4,3,0,3,1,2,2,4,3,3,4,27,144,
scooby_state_4005c4|59|1 82,4,4,1,3,1,3,5,4,0,2,4,2,2,27,144,
scooby_state_4005c4|30|1 76,7,1,4,2,1,1,1,6,2,2,2,2,3,34,144,
scooby_state_4005c4|55|1 82,3,5,3,2,2,3,4,2,2,1,1,4,3,27,144,
scooby_state_4005c4|32|1 90,1,4,4,1,1,4,2,2,2,2,2,1,4,24,144,
scooby_state_4005eb|13|1 82,1,3,1,2,4,7,3,0,4,3,3,2,1,28,144,
scooby_state_4005c4|45|1 86,4,2,3,3,5,1,4,1,3,1,1,2,2,26,144,
scooby_state_4005c4|60|1 85,4,2,4,1,2,1,3,3,0,2,2,6,3,25,143,
scooby_state_4005eb|44|1 87,3,2,5,2,1,0,3,2,1,0,3,4,3,27,143,
scooby_state_4005eb|39|1 71,1,3,5,3,3,5,4,3,3,7,2,0,1,32,143,
scooby_state_4005c4|12|1 94,3,1,4,2,2,3,3,2,3,5,2,1,2,16,143,
scooby_state_4005eb|17|1 84,5,2,6,4,4,3,1,2,3,0,2,3,1,23,143,
scooby_state_4005eb|40|1 86,3,2,2,3,2,2,6,3,5,1,3,4,2,19,143,
scooby_state_4005c4|23|1 85,5,3,1,3,1,5,5,3,1,2,6,2,2,19,143,
scooby_state_4005eb|49|1 80,6,3,3,5,3,2,0,2,4,2,4,3,6,20,143,
scooby_state_4005eb|46|1 84,2,2,2,5,3,2,3,3,1,2,4,0,2,28,143,
scooby_state_4005c4|20|1 95,2,3,1,6,2,0,3,1,2,3,0,1,2,22,143,
scooby_state_4005eb|60|1 78,7,2,2,4,1,2,5,2,4,2,1,3,3,27,143,
scooby_state_4005eb|52|1 85,6,4,0,3,5,4,3,1,1,2,1,1,3,24,143,
scooby_state_4005c4|13|1 82,4,2,3,4,4,4,1,2,5,0,0,3,3,26,143,
scooby_state_401db4|0|0 143,0,0,0,0,0,0,0,0,0,0,0,0,0,0,143,
scooby_state_4005c4|38|1 76,4,2,1,4,3,0,2,0,2,4,3,3,3,36,143,
scooby_state_4005eb|28|1 84,3,4,1,1,3,5,2,2,3,2,2,2,1,28,143,
scooby_state_4005c4|33|1 85,1,2,3,2,2,3,1,1,1,0,1,2,3,35,142,
scooby_state_4005c4|8|1 80,6,2,1,4,2,2,2,7,3,4,4,2,2,21,142,
scooby_state_4005c4|39|1 88,4,2,1,2,4,4,4,2,0,3,1,2,1,24,142,
scooby_state_4005c4|62|1 86,3,2,3,5,3,1,1,2,2,2,4,1,3,24,142,
scooby_state_4005c4|27|1 89,1,2,1,2,4,3,1,1,4,2,6,2,1,23,142,
scooby_state_4005c4|44|1 69,3,5,3,5,3,2,4,4,1,5,3,3,4,28,142,
scooby_state_4005c4|25|1 83,1,3,2,5,2,5,2,1,2,2,2,4,3,25,142,
scooby_state_4005c4|21|1 85,3,0,4,7,1,0,2,2,4,1,2,5,0,26,142,
scooby_state_4005eb|61|1 86,2,2,2,4,3,2,2,5,5,3,1,3,3,19,142,
scooby_state_4005eb|53|1 86,4,4,5,2,3,2,3,5,2,2,2,4,4,14,142,
scooby_state_4005c4|19|1 83,2,3,4,1,2,4,4,1,3,1,2,2,2,27,141,
scooby_state_4005c4|16|1 82,3,4,5,3,4,5,2,2,2,1,1,3,2,22,141,
scooby_state_401d50|41|-1 121,0,1,0,0,1,0,1,0,1,2,3,2,2,7,141,
scooby_state_4005c4|7|1 76,3,2,3,2,2,2,3,2,6,3,1,2,1,33,141,
scooby_state_4005c4|28|1 83,2,3,1,3,2,4,0,1,0,3,1,3,2,33,141,
scooby_state_4005c4|48|1 76,6,2,4,0,1,2,0,2,1,3,2,6,2,34,141,
scooby_state_401d7b|16|1 1,0,0,0,0,0,1,1,1,2,0,134,0,0,0,140,
scooby_state_401d7b|13|0 1,1,1,0,0,0,1,2,0,0,0,134,0,0,0,140,
scooby_state_4005c4|50|1 86,1,3,2,1,1,6,0,2,4,3,2,2,3,24,140,
scooby_state_401d7b|2|0 0,1,2,0,1,1,2,0,0,0,1,132,0,0,0,140,
scooby_state_40221d|23|0 120,2,1,1,1,1,1,1,1,2,2,1,1,1,4,140,
scooby_state_401d7b|46|1 0,0,0,0,0,0,1,0,0,1,0,138,0,0,0,140,
scooby_state_402359|37|34 111,5,5,2,2,1,2,1,3,0,4,2,1,0,1,140,
scooby_state_4005c4|46|1 81,0,3,4,2,4,0,2,1,3,0,4,3,2,31,140,
scooby_state_4005c4|52|1 76,1,3,4,3,1,3,0,3,3,5,3,1,3,30,139,
scooby_state_401d50|49|-1 106,3,0,2,1,0,2,0,3,4,0,1,0,1,15,138,
scooby_state_4005c4|41|1 81,2,0,7,7,4,1,1,1,5,0,0,3,4,22,138,
scooby_state_401d7b|17|1 0,0,3,0,0,2,0,0,1,1,2,129,0,0,0,138,
scooby_state_401d50|19|-1 111,3,0,0,2,2,1,1,1,2,1,3,2,0,8,137,
scooby_state_401db4|4|0 137,0,0,0,0,0,0,0,0,0,0,0,0,0,0,137,
scooby_state_401d7b|15|0 2,0,1,0,0,0,1,2,0,0,0,131,0,0,0,137,
scooby_state_40222b|57|0 129,1,0,1,0,1,0,0,1,1,1,1,0,1,0,137,
scooby_state_401d50|61|-1 113,1,1,1,1,0,1,0,2,1,2,4,1,1,7,136,
scooby_state_40222b|43|0 83,3,3,2,6,4,5,4,2,2,3,4,4,5,6,136,
scooby_state_401d77|55|0 0,0,0,0,0,0,1,0,1,0,1,131,1,0,0,135,
scooby_state_401d7b|5|1 1,0,0,0,0,1,0,0,2,2,0,129,0,0,0,135,
scooby_state_402359|29|21 126,0,2,2,1,0,1,1,1,0,0,0,0,0,1,135,
scooby_state_40221d|13|0 125,1,1,1,0,0,1,1,0,1,0,0,1,0,2,134,
scooby_state_401de4|33|0 134,0,0,0,0,0,0,0,0,0,0,0,0,0,0,134,
scooby_state_401db4|45|0 133,0,0,0,0,0,0,0,0,0,0,0,0,0,0,133,
scooby_state_40221d|9|0 125,0,1,1,0,1,2,1,0,0,0,1,0,0,1,133,
scooby_state_401d7b|55|1 1,0,1,0,0,0,1,1,0,0,0,128,0,0,0,132,
scooby_state_402359|58|42 93,3,2,5,3,3,4,0,5,2,3,0,5,1,2,131,
scooby_state_401db4|16|0 131,0,0,0,0,0,0,0,0,0,0,0,0,0,0,131,
scooby_state_401db4|55|0 130,0,0,0,0,0,0,0,0,0,0,0,0,0,0,130,
scooby_state_40221d|0|0 125,0,0,0,2,0,0,0,0,0,0,1,2,0,0,130,
scooby_state_401d7b|54|0 1,1,1,0,1,0,0,0,1,1,0,124,0,0,0,130,
scooby_state_402359|11|7 87,2,1,2,1,3,1,1,0,1,0,18,1,11,1,130,
scooby_state_401d50|53|-1 109,2,0,0,3,0,0,0,3,2,1,0,0,0,10,130,
scooby_state_402115|0|0 13,8,8,9,8,8,9,7,6,6,7,17,5,6,13,130,
scooby_state_402359|38|23 106,1,2,1,2,0,3,3,0,1,0,2,4,2,2,129,
scooby_state_401d50|44|-1 108,1,1,1,1,0,1,0,3,2,1,1,0,1,8,129,
scooby_state_402359|18|15 107,2,2,3,1,2,0,1,0,3,0,0,1,1,5,128,
scooby_state_401d7b|56|1 1,0,0,1,0,0,1,1,0,0,0,123,0,0,0,127,
scooby_state_401d7b|32|1 0,0,2,0,0,2,1,0,0,0,2,120,0,0,0,127,
scooby_state_402359|39|26 112,1,2,1,0,2,1,0,3,2,0,0,1,1,0,126,
scooby_state_40222b|62|0 105,1,2,1,2,1,1,2,1,1,1,2,2,1,2,125,
scooby_state_4020f9|62|3 123,0,0,0,0,0,0,0,0,1,0,0,0,1,0,125,
scooby_state_402359|38|21 97,4,2,2,2,1,3,3,2,0,0,1,2,1,5,125,
scooby_state_402359|48|34 107,0,2,1,1,0,1,2,0,2,0,6,1,1,1,125,
scooby_state_401d50|3|-1 103,1,1,0,1,0,2,1,1,3,1,1,0,0,9,124,
scooby_state_401d50|42|-1 102,2,2,2,2,0,2,0,1,1,0,2,0,2,6,124,
scooby_state_402359|26|24 108,1,0,1,3,1,0,3,0,1,1,2,0,2,1,124,
scooby_state_401d7b|46|0 0,0,2,0,0,0,2,0,1,0,1,117,0,0,0,123,
scooby_state_40221d|44|0 85,4,3,2,2,2,2,2,4,2,2,4,2,2,5,123,
scooby_state_401d7b|42|0 1,0,1,0,0,2,0,1,0,0,2,116,0,0,0,123,
scooby_state_40222b|31|0 101,1,2,1,2,1,1,2,1,1,1,3,2,1,2,122,
scooby_state_401db4|53|0 121,0,0,0,0,1,0,0,0,0,0,0,0,0,0,122,
scooby_state_401db0|45|1 1,1,2,0,1,2,1,0,0,2,1,1,2,2,106,122,
scooby_state_401d50|50|-2 98,0,2,2,0,2,1,0,0,0,2,2,2,1,9,121,
scooby_state_402359|49|47 90,3,5,3,2,4,1,2,0,0,1,2,3,2,3,121,
scooby_state_401d7b|23|0 0,0,1,0,0,2,0,0,0,0,2,116,0,0,0,121,
scooby_state_401d50|26|-2 102,0,2,2,0,1,1,1,0,1,1,2,0,1,7,121,
scooby_state_402359|30|29 99,1,1,1,2,0,0,3,0,0,1,3,1,1,7,120,
scooby_state_401c58|34|0 0,3,4,3,3,3,5,0,3,4,4,80,3,3,2,120,
scooby_state_401d50|44|-2 98,0,2,2,0,1,2,0,0,0,1,1,1,2,10,120,
scooby_state_401d50|5|-1 95,0,2,1,0,1,1,1,0,0,2,3,2,2,10,120,
scooby_state_40222b|48|0 100,1,2,1,2,1,1,2,2,1,1,1,2,1,2,120,
scooby_state_40221d|42|0 99,2,1,1,2,1,1,1,1,2,2,1,2,1,2,119,
scooby_state_401d81|56|-1 112,0,0,0,2,0,0,2,1,0,0,0,2,0,0,119,
scooby_state_40222b|29|0 107,0,1,2,1,1,1,1,0,0,1,1,1,1,1,119,
scooby_state_40221d|52|0 104,1,0,1,3,1,1,2,1,0,2,1,1,0,1,119,
scooby_state_402359|44|19 66,4,5,2,3,1,6,2,3,4,4,4,4,5,5,118,
scooby_state_401d7b|54|1 0,0,1,0,0,1,1,0,1,1,0,113,0,0,0,118,
scooby_state_401d7b|57|1 1,0,0,0,0,2,0,1,1,0,1,110,1,0,0,117,
scooby_state_402359|46|34 92,2,3,1,5,2,0,3,1,1,0,2,1,4,0,117,
scooby_state_40222b|60|0 112,1,0,1,0,1,0,0,0,0,0,0,0,1,1,117,
scooby_state_402359|60|10 97,2,0,1,0,3,0,2,3,1,0,0,1,2,5,117,
scooby_state_402359|12|6 84,2,1,0,4,3,2,4,2,0,2,6,4,0,2,116,
scooby_state_401d7b|4|0 0,0,1,0,0,0,1,1,0,0,1,111,0,0,0,115,
scooby_state_401d50|39|-1 95,0,2,1,0,1,1,1,0,1,1,3,0,2,7,115,
scooby_state_401d7b|8|1 0,0,0,1,0,2,1,0,0,1,0,109,0,0,0,114,
scooby_state_402359|38|26 101,0,1,0,2,0,1,3,1,0,1,1,2,1,0,114,
scooby_state_402359|38|33 68,5,2,4,2,3,3,1,5,3,3,3,3,2,7,114,
scooby_state_401d50|51|-2 92,0,1,0,1,0,1,0,1,1,1,1,1,1,12,113,
scooby_state_402359|7|2 84,2,2,1,2,1,1,2,1,1,0,10,1,1,4,113,
scooby_state_402359|9|1 86,2,5,2,2,1,2,4,2,2,2,0,1,1,0,112,
scooby_state_401d50|62|-1 96,0,1,0,0,1,1,2,0,1,1,2,1,1,4,111,
scooby_state_401d7b|11|0 0,0,2,0,0,0,1,0,0,0,1,107,0,0,0,111,
scooby_state_40222b|37|0 104,1,1,1,0,0,1,0,1,1,1,0,0,0,0,111,
scooby_state_40222b|44|0 107,0,1,0,1,0,1,0,0,0,0,1,0,0,0,111,
scooby_state_402359|52|35 92,0,1,2,0,1,0,1,1,1,1,1,1,0,8,110,
scooby_state_401db0|62|1 1,1,2,2,0,3,1,1,1,1,0,0,2,0,95,110,
scooby_state_40222b|23|0 76,2,2,1,3,2,3,3,2,2,2,2,3,3,4,110,
scooby_state_402221|18|0 109,0,0,0,0,0,0,0,0,0,0,1,0,0,0,110,
scooby_state_401d50|61|-2 95,1,0,1,1,0,1,1,0,1,1,1,0,1,5,109,
scooby_state_401db4|21|0 109,0,0,0,0,0,0,0,0,0,0,0,0,0,0,109,
scooby_state_402221|21|0 106,0,0,0,1,0,0,0,0,0,0,1,0,0,1,109,
scooby_state_402359|50|47 81,2,2,1,0,1,2,3,3,1,1,4,3,2,3,109,
scooby_state_401d50|13|-1 87,0,1,0,0,4,0,1,0,0,1,5,3,2,5,109,
scooby_state_402115|0|-1 46,4,7,3,3,5,1,0,3,2,2,27,2,1,2,108,
scooby_state_401d81|54|-1 96,0,1,0,2,2,1,1,1,0,0,2,2,0,0,108,
scooby_state_402115|1|0 11,8,11,6,6,5,6,7,6,7,5,16,4,5,5,108,
scooby_state_40222b|27|0 101,0,1,0,1,0,2,0,0,0,0,2,1,0,0,108,
scooby_state_401db4|52|0 107,0,0,0,0,0,0,0,0,0,0,0,0,0,0,107,
scooby_state_401db4|60|0 107,0,0,0,0,0,0,0,0,0,0,0,0,0,0,107,
scooby_state_401c7c|20|-1 78,0,1,0,5,0,5,1,0,5,0,0,0,6,5,106,
scooby_state_401d7b|61|1 0,0,2,0,0,1,1,0,0,0,2,100,0,0,0,106,
scooby_state_402359|35|28 63,2,0,2,6,4,3,3,3,3,2,7,3,1,4,106,
scooby_state_402359|48|25 65,2,3,7,1,0,4,3,5,2,1,4,3,6,0,106,
scooby_state_402359|54|13 95,0,1,4,0,0,1,2,1,1,0,0,1,0,0,106,
scooby_state_402359|50|3 83,1,0,4,3,1,1,0,0,0,0,4,3,0,5,105,
scooby_state_401d50|37|-1 92,0,0,1,0,0,1,2,0,2,1,1,0,1,4,105,
scooby_state_401d7b|18|1 0,0,0,1,0,1,1,0,0,0,0,102,0,0,0,105,
scooby_state_401d7b|48|0 1,0,0,1,0,0,1,1,0,0,0,101,0,0,0,105,
scooby_state_401d50|10|-1 88,1,1,1,0,0,1,0,1,2,1,1,0,1,7,105,
scooby_state_401d77|39|0 1,0,0,0,0,0,0,0,0,0,1,102,0,0,0,104,
scooby_state_402359|57|39 84,0,1,3,3,2,2,0,3,1,0,2,1,1,1,104,
scooby_state_402221|23|0 46,4,4,4,4,4,4,4,4,4,4,4,4,4,6,104,
scooby_state_401d50|49|-2 89,0,0,0,1,0,0,1,1,2,0,0,0,0,10,104,
scooby_state_401d50|40|-1 87,1,2,1,1,1,1,1,0,1,1,2,1,1,3,104,
scooby_state_401d50|17|-1 83,1,1,1,0,2,1,0,0,1,0,4,1,2,7,104,
scooby_state_401d77|31|1 1,0,1,0,1,0,0,0,0,1,1,99,0,0,0,104,
scooby_state_401d77|42|1 0,0,0,0,0,0,0,0,0,0,1,103,0,0,0,104,
scooby_state_40221d|5|-8 34,5,4,3,3,8,7,3,6,9,7,0,4,5,5,103,
scooby_state_402108|60|1 103,0,0,0,0,0,0,0,0,0,0,0,0,0,0,103,
scooby_state_401d7b|53|1 0,0,0,0,0,1,0,0,1,1,1,99,0,0,0,103,
scooby_state_401d7b|26|1 0,0,1,0,0,1,0,0,0,0,0,101,0,0,0,103,
scooby_state_40222b|51|0 85,1,1,1,1,1,2,1,1,1,1,2,2,1,2,103,
scooby_state_401d77|41|1 1,0,0,0,0,1,0,0,1,0,1,98,1,0,0,103,
scooby_state_401db4|54|0 103,0,0,0,0,0,0,0,0,0,0,0,0,0,0,103,
scooby_state_402359|56|37 73,4,2,4,3,1,1,2,2,2,0,1,3,1,3,102,
scooby_state_401d50|51|-1 89,1,1,0,1,1,0,1,0,1,1,1,0,1,3,101,
scooby_state_402359|28|10 87,2,0,1,0,1,1,1,0,0,1,1,3,1,2,101,
scooby_state_40222b|1|-28 45,4,5,4,4,4,4,2,5,2,7,0,3,4,8,101,
scooby_state_402359|58|29 90,1,0,0,0,0,1,0,0,0,0,3,0,0,6,101,
scooby_state_402359|58|36 88,0,0,0,0,0,0,0,0,0,0,10,1,0,2,101,
scooby_state_401d7b|53|0 0,0,2,0,0,1,1,0,0,0,1,95,0,0,0,100,
scooby_state_402359|50|43 65,2,1,2,4,3,4,1,3,1,3,3,2,2,4,100,
scooby_state_401d77|55|1 0,0,0,0,0,0,0,0,0,0,1,98,0,1,0,100,
scooby_state_401d77|40|0 0,1,1,0,0,1,0,0,0,1,0,96,0,0,0,100,
scooby_state_402359|29|15 94,0,0,0,0,0,0,0,0,0,0,1,2,0,3,100,
scooby_state_4005e7|1|1 57,3,3,0,1,1,3,5,3,4,1,0,6,3,9,99,
scooby_state_4005e7|26|1 49,6,3,1,5,4,6,1,3,4,1,3,1,4,8,99,
scooby_state_4005c0|59|1 58,4,3,3,1,2,4,0,3,1,1,4,7,3,5,99,
scooby_state_4005c0|20|1 49,1,1,3,3,4,1,2,6,2,4,1,3,3,16,99,
scooby_state_4005e7|34|1 55,2,2,2,2,5,2,7,5,3,2,1,4,3,4,99,
scooby_state_4005e7|22|1 58,4,2,1,1,0,0,4,1,3,2,2,4,7,10,99,
scooby_state_401f95|34|-1 8,7,11,6,5,5,7,4,6,4,5,6,8,7,10,99,
scooby_state_4005c0|38|1 54,5,1,6,3,2,3,1,2,2,1,3,4,8,4,99,
scooby_state_4005e7|21|1 67,1,3,1,0,4,0,3,0,3,1,1,3,2,10,99,
scooby_state_4005e7|14|1 62,4,3,1,0,2,0,1,1,1,2,6,3,2,11,99,
scooby_state_402359|13|13 74,1,1,1,3,0,1,3,1,0,4,2,1,4,3,99,
scooby_state_4005e7|47|1 63,5,2,0,2,2,2,1,1,4,2,1,3,4,7,99,
scooby_state_4005e7|27|1 60,2,2,1,4,1,2,5,3,1,1,4,6,4,3,99,
scooby_state_4005e7|60|1 63,0,3,3,2,3,1,4,2,0,5,1,2,2,8,99,
scooby_state_4005c0|51|1 59,2,3,5,2,4,3,3,3,1,0,2,1,1,10,99,
scooby_state_4005c0|13|1 60,4,2,2,2,2,6,0,1,2,2,1,4,3,8,99,
scooby_state_4005e7|9|1 53,4,2,2,3,2,4,1,4,3,0,2,4,5,10,99,
scooby_state_4005c0|7|1 58,4,3,0,7,3,1,3,1,0,4,1,2,4,8,99,
scooby_state_4005c0|8|1 54,1,2,1,3,6,3,3,1,0,1,5,7,1,11,99,
scooby_state_4005c0|33|1 57,2,1,3,3,3,1,6,3,1,0,3,3,4,9,99,
scooby_state_4005c0|12|1 63,1,4,3,3,3,3,2,1,2,0,2,1,2,9,99,
scooby_state_4005c0|46|1 58,3,2,3,4,0,4,3,4,2,2,3,2,2,7,99,
scooby_state_4005c0|52|1 63,2,6,1,1,2,1,2,3,2,1,2,3,1,9,99,
scooby_state_4005e7|39|1 52,2,1,5,4,1,2,1,4,0,4,7,6,5,5,99,
scooby_state_4005c0|25|1 62,3,4,1,4,2,2,3,4,2,1,1,1,2,7,99,
scooby_state_401d7b|22|1 0,0,2,1,0,0,1,0,0,0,0,95,0,0,0,99,
scooby_state_401d77|24|1 0,0,0,0,0,0,0,0,0,0,1,98,0,0,0,99,
scooby_state_401d7b|51|0 0,0,0,0,0,1,0,0,1,1,0,96,0,0,0,99,
scooby_state_4005c0|9|1 59,1,5,3,3,2,3,1,2,3,4,1,2,3,6,98,
scooby_state_4005e7|23|1 55,5,4,3,3,3,2,2,3,0,2,6,3,4,3,98,
scooby_state_4005e7|59|1 57,1,3,3,4,5,5,0,1,1,3,0,2,4,9,98,
scooby_state_4005e7|15|1 58,5,2,2,3,2,1,0,2,0,4,3,3,2,11,98,
scooby_state_4005c0|16|1 55,5,1,5,2,1,4,1,3,1,0,2,4,2,12,98,
scooby_state_4005e7|6|1 56,1,2,4,4,0,4,3,2,1,3,0,6,3,9,98,
scooby_state_4005c0|61|1 61,2,1,3,3,5,4,2,2,0,2,0,2,2,9,98,
scooby_state_4005e7|46|1 59,2,7,1,1,6,1,1,2,1,3,1,5,2,6,98,
scooby_state_4005c0|42|1 53,8,1,3,6,4,3,2,1,2,0,2,3,4,6,98,
scooby_state_4005e7|3|1 51,2,0,2,6,6,0,3,3,1,4,1,6,6,7,98,
scooby_state_4005c0|1|1 60,4,2,0,1,2,3,2,5,2,1,4,4,3,5,98,
scooby_state_4005c0|24|1 55,3,3,2,0,6,3,2,4,2,3,0,5,2,8,98,
scooby_state_4005c0|50|1 62,1,1,0,2,1,1,2,2,4,2,1,2,2,15,98,
scooby_state_4005c0|40|1 56,1,2,3,2,2,4,6,4,3,1,1,4,1,8,98,
scooby_state_4005c0|41|1 60,2,7,0,5,2,4,2,1,3,0,2,4,1,5,98,
scooby_state_4005e7|18|1 54,3,2,4,4,4,3,5,2,3,0,1,2,3,8,98,
scooby_state_4005c0|18|1 52,3,6,3,3,3,0,2,2,4,1,1,4,4,10,98,
scooby_state_4005e7|8|1 52,1,3,8,1,2,3,2,1,1,2,2,7,1,12,98,
scooby_state_401db0|50|1 2,2,2,1,4,1,2,2,1,0,1,2,1,3,74,98,
scooby_state_4005e7|12|1 62,1,2,3,2,2,2,4,4,4,0,0,0,2,10,98,
scooby_state_4005c0|54|1 52,6,4,4,2,4,2,2,2,2,1,2,3,1,11,98,
scooby_state_4005c0|5|1 61,4,1,1,0,6,0,2,1,1,1,3,5,5,7,98,
scooby_state_4005e7|51|1 64,4,5,2,1,3,2,1,2,2,2,2,3,0,5,98,
scooby_state_4005c0|6|1 54,0,5,1,6,2,4,0,2,4,2,5,3,1,9,98,
scooby_state_4005c0|44|1 59,0,4,3,3,7,3,2,1,1,1,3,1,1,9,98,
scooby_state_4005c0|31|1 62,1,2,3,2,1,3,2,2,3,1,4,2,1,9,98,
scooby_state_4005e7|45|1 52,2,3,5,3,4,8,3,0,1,1,4,2,1,9,98,
scooby_state_4005e7|38|1 59,2,6,3,4,3,3,0,0,1,0,3,3,3,8,98,
scooby_state_401c58|51|0 0,3,1,3,3,2,2,0,4,3,2,69,1,5,0,98,
scooby_state_4005e7|42|1 61,7,1,2,6,1,2,1,4,2,1,2,1,0,7,98,
scooby_state_4005c0|19|1 57,1,2,4,1,4,2,4,0,2,4,4,2,2,9,98,
scooby_state_4005c0|34|1 57,0,2,2,4,2,1,1,1,3,3,3,4,6,9,98,
scooby_state_4005e7|58|1 50,2,4,3,2,0,6,1,2,4,3,3,2,4,12,98,
scooby_state_4005e7|19|1 53,1,6,3,3,5,1,0,5,1,3,0,3,5,9,98,
scooby_state_4005c0|23|1 50,1,1,4,2,2,2,3,2,3,5,3,2,1,17,98,
scooby_state_4005c0|60|1 56,0,0,6,4,1,2,1,4,2,1,2,4,4,11,98,
scooby_state_4005e7|37|1 56,3,4,2,4,1,2,0,3,4,4,5,1,2,7,98,
scooby_state_4005c0|48|1 47,3,6,8,3,4,1,2,2,2,1,1,4,5,9,98,
scooby_state_4005e7|48|1 53,1,7,0,1,2,4,1,1,2,2,3,3,7,11,98,
scooby_state_4005c0|53|1 50,2,4,1,4,4,2,0,4,5,3,2,2,1,14,98,
scooby_state_4005c0|27|1 56,2,2,5,3,2,3,2,2,1,0,4,4,4,8,98,
scooby_state_4005c0|39|1 49,4,7,3,3,2,0,0,3,6,3,5,3,1,9,98,
scooby_state_4005e7|41|1 61,4,3,2,2,2,4,2,3,2,2,1,2,1,7,98,
scooby_state_4005c0|26|1 50,2,3,6,3,3,3,0,3,0,3,2,4,2,14,98,
scooby_state_4005c0|2|1 51,3,3,2,2,7,3,3,0,1,0,2,2,3,16,98,
scooby_state_4005c0|11|1 60,2,1,1,5,3,5,2,4,1,4,3,0,2,5,98,
scooby_state_4005c0|10|1 48,5,6,2,0,1,2,1,1,4,4,0,5,6,13,98,
scooby_state_4005c0|47|1 52,2,3,4,2,3,4,1,1,3,2,1,1,5,14,98,
scooby_state_4005e7|4|1 56,2,4,1,1,2,3,3,3,5,2,3,4,4,5,98,
scooby_state_4005e7|5|1 48,5,1,4,3,2,3,4,5,3,4,1,2,4,9,98,
scooby_state_4005c0|22|1 53,4,1,2,4,1,1,6,3,1,0,6,3,3,10,98,
scooby_state_4005c0|56|1 59,3,0,1,2,6,2,2,4,1,3,5,0,2,8,98,
scooby_state_4005e7|16|1 58,2,4,4,2,2,1,1,2,1,2,1,5,4,9,98,
scooby_state_4005c0|21|1 56,3,3,4,2,2,1,3,0,5,3,1,4,4,7,98,
scooby_state_4005e7|28|1 51,2,4,4,3,4,2,0,2,3,2,2,4,3,12,98,
scooby_state_4005e7|29|1 61,3,4,3,3,2,1,1,0,3,0,1,3,1,12,98,
scooby_state_4005e7|50|1 50,2,1,4,1,6,1,4,4,1,1,3,5,4,11,98,
scooby_state_4005e7|17|1 57,3,6,0,5,5,1,3,3,1,0,1,5,2,6,98,
scooby_state_4005e7|53|1 56,4,3,3,2,1,2,3,3,1,2,3,3,4,8,98,
scooby_state_4005c0|28|1 50,4,3,4,2,1,4,1,3,0,3,4,7,1,11,98,
scooby_state_4005e7|44|1 55,2,3,6,1,3,3,1,3,3,2,3,2,1,10,98,
scooby_state_4005e7|62|1 55,1,3,2,4,3,3,1,3,1,4,4,4,6,4,98,
scooby_state_4005c0|29|1 55,3,1,1,5,1,3,0,4,3,6,1,2,2,11,98,
scooby_state_4005c0|35|1 49,0,3,4,3,1,5,5,3,2,4,3,2,3,11,98,
scooby_state_401db4|15|0 98,0,0,0,0,0,0,0,0,0,0,0,0,0,0,98,
scooby_state_4005e7|20|1 68,1,2,4,1,3,1,1,4,0,1,2,4,3,3,98,
scooby_state_4005e7|32|1 58,4,5,6,3,0,2,3,2,2,3,1,2,0,7,98,
scooby_state_4005e7|10|1 55,5,4,3,2,1,1,2,2,2,4,6,2,2,7,98,
scooby_state_4005e7|13|1 58,6,4,1,3,1,0,4,5,3,4,0,1,3,5,98,
scooby_state_4005e7|31|1 62,0,1,0,5,4,5,3,1,1,3,4,0,5,4,98,
scooby_state_4005c0|14|1 58,3,4,1,2,5,1,4,2,2,3,1,1,2,9,98,
scooby_state_4005c0|37|1 54,3,6,4,1,1,3,2,4,3,1,3,3,0,10,98,
scooby_state_4005c0|17|1 55,4,4,2,4,2,3,4,1,1,5,0,2,5,6,98,
scooby_state_4005c0|55|1 63,2,3,2,2,2,4,3,2,2,1,2,1,1,8,98,
scooby_state_4005e7|33|1 58,4,0,3,2,3,3,1,1,3,2,0,4,3,11,98,
scooby_state_4005e7|57|1 48,2,3,5,5,4,3,1,1,5,1,5,1,2,12,98,
scooby_state_4005c0|32|1 60,1,2,3,0,2,2,1,1,2,3,6,0,2,13,98,
scooby_state_4005e7|63|1 49,3,3,3,3,9,3,2,2,4,2,2,3,2,8,98,
scooby_state_4005e7|30|1 50,5,1,5,3,2,3,3,0,4,2,0,3,6,11,98,
scooby_state_4005e7|49|1 51,3,2,2,3,1,2,3,4,4,0,4,3,8,8,98,
scooby_state_4005c0|62|1 50,3,3,2,1,3,3,2,1,0,4,3,4,5,14,98,
scooby_state_4005e7|40|1 64,4,2,2,3,3,3,1,2,1,2,2,0,2,7,98,
scooby_state_4005c0|57|1 45,1,7,2,2,2,2,1,7,1,3,5,9,1,10,98,
scooby_state_4005c0|43|1 55,3,0,3,3,7,2,0,1,1,2,4,3,6,8,98,
scooby_state_4005c0|63|1 60,2,3,2,2,3,2,2,6,1,0,3,2,1,9,98,
scooby_state_4005e7|25|1 52,3,4,2,4,3,1,4,4,3,3,4,2,2,7,98,
scooby_state_4005e7|54|1 59,1,2,1,3,4,2,4,2,2,3,3,6,0,6,98,
scooby_state_4005e7|7|1 57,4,3,1,4,5,2,4,4,2,2,2,3,3,2,98,
scooby_state_4005e7|11|1 54,0,3,5,2,7,2,3,2,0,0,1,2,4,13,98,
scooby_state_4005c0|58|1 50,2,3,2,4,0,2,4,4,3,2,5,5,0,12,98,
scooby_state_4005e7|52|1 54,2,3,2,5,2,4,1,1,4,3,2,4,3,8,98,
scooby_state_4005e7|24|1 57,5,2,2,3,5,2,3,2,1,2,0,1,3,10,98,
scooby_state_4005c0|3|1 48,3,2,3,2,0,6,0,7,3,1,3,5,3,12,98,
scooby_state_4005e7|2|1 54,7,2,5,2,5,4,3,2,3,0,2,2,1,6,98,
scooby_state_4005c0|30|1 52,0,2,3,2,4,4,0,5,1,0,5,2,5,13,98,
scooby_state_4005c0|15|1 60,3,3,0,3,1,1,1,1,2,2,1,3,5,12,98,
scooby_state_4005c0|36|1 53,4,2,4,2,0,2,5,3,0,5,2,4,2,10,98,
scooby_state_4005c0|49|1 50,3,4,3,5,4,7,2,0,0,2,1,3,6,8,98,
scooby_state_4005e7|61|1 54,1,2,1,2,2,2,5,3,2,3,3,0,5,13,98,
scooby_state_4005e7|56|1 50,6,2,5,3,1,1,4,1,4,1,3,3,3,11,98,
scooby_state_4005e7|43|1 60,4,2,4,3,2,3,0,2,1,2,3,5,1,6,98,
scooby_state_4005e7|36|1 59,2,2,4,4,5,3,0,3,2,1,1,1,2,9,98,
scooby_state_4005c0|45|1 58,3,2,1,6,0,8,3,2,2,0,3,2,3,5,98,
scooby_state_4005e7|35|1 58,5,1,2,6,4,0,1,1,1,2,4,4,3,6,98,
scooby_state_4005c0|4|1 52,4,2,6,3,1,5,3,1,0,4,3,0,3,11,98,
scooby_state_4005e7|55|1 57,2,0,5,5,1,1,1,2,0,0,3,5,1,15,98,
scooby_state_401d50|20|-1 82,1,1,0,1,1,0,0,2,1,1,1,0,0,6,97,
scooby_state_401db0|14|1 1,0,2,0,1,3,1,1,1,0,2,0,1,0,84,97,
scooby_state_401d77|30|0 1,0,0,0,0,0,0,0,1,0,0,95,0,0,0,97,
scooby_state_402359|35|26 77,5,3,0,3,0,0,0,0,1,2,1,1,3,1,97,
scooby_state_402221|8|0 70,2,2,2,2,1,1,2,2,2,2,3,2,2,2,97,
scooby_state_401d77|58|0 0,1,1,0,0,1,0,1,0,0,0,93,0,0,0,97,
scooby_state_4005eb|0|0 0,7,5,10,5,5,4,7,7,6,6,15,1,5,13,96,
scooby_state_402359|56|36 73,1,2,2,0,0,0,2,1,0,0,8,2,1,4,96,
scooby_state_401d50|13|-2 83,0,1,1,0,0,1,1,0,1,0,1,0,1,6,96,
scooby_state_401d7b|23|1 1,0,1,0,0,0,0,0,0,0,0,93,0,0,0,95,
scooby_state_401d7b|24|1 1,0,1,0,0,0,0,1,0,0,1,90,0,0,1,95,
scooby_state_4020f9|62|2 85,0,0,2,0,1,0,0,1,0,2,0,0,1,3,95,
scooby_state_401d7b|6|1 1,0,1,0,0,0,1,0,0,0,0,92,0,0,0,95,
scooby_state_40221d|37|0 85,1,0,1,1,0,1,1,1,0,1,0,1,0,1,94,
scooby_state_401db4|63|0 94,0,0,0,0,0,0,0,0,0,0,0,0,0,0,94,
scooby_state_401d7b|62|1 1,0,0,0,0,1,0,0,0,0,1,91,0,0,0,94,
scooby_state_401d81|57|-1 78,2,1,1,0,1,1,0,2,1,1,1,0,1,3,93,
scooby_state_401d77|51|1 0,1,1,0,1,1,0,0,1,0,0,86,1,0,0,92,
scooby_state_401de0|36|1 2,1,1,2,1,1,1,0,1,1,2,1,4,3,71,92,
scooby_state_401d7b|50|1 0,0,0,0,0,2,0,0,0,0,1,89,0,0,0,92,
scooby_state_401d81|15|-1 72,2,2,2,0,1,2,0,0,2,2,1,0,2,4,92,
scooby_state_401d77|14|0 0,0,0,0,1,0,0,1,0,0,0,90,0,0,0,92,
scooby_state_402359|32|26 78,3,1,1,1,1,1,0,2,1,0,0,0,0,2,91,
scooby_state_401d7b|43|1 0,0,1,0,0,0,1,1,0,0,1,87,0,0,0,91,
scooby_state_401c5c|39|0 27,7,2,5,2,3,6,6,6,2,4,1,7,6,7,91,
scooby_state_402359|50|39 51,4,2,3,3,4,1,1,2,2,2,3,5,2,6,91,
scooby_state_401d7b|0|0 0,0,3,0,0,1,0,0,0,0,0,87,0,0,0,91,
scooby_state_401d81|22|-1 78,2,1,1,0,1,0,0,0,1,0,2,0,1,4,91,
scooby_state_402359|63|3 70,4,0,1,3,1,1,3,0,1,1,1,1,1,3,91,
scooby_state_401d77|18|0 0,0,0,0,0,0,0,0,0,0,2,88,0,0,0,90,
scooby_state_401d81|35|-2 81,0,1,1,1,0,1,0,0,1,1,2,0,0,1,90,
scooby_state_401d7b|37|1 0,0,0,0,0,1,0,0,1,1,1,86,0,0,0,90,
scooby_state_402359|51|39 60,3,2,2,1,4,2,1,1,1,2,5,0,3,3,90,
scooby_state_401d50|34|-1 75,0,2,0,0,1,1,0,0,1,1,3,1,1,4,90,
scooby_state_401de4|54|0 90,0,0,0,0,0,0,0,0,0,0,0,0,0,0,90,
scooby_state_40221d|5|0 78,0,0,0,2,2,1,1,1,0,2,2,0,0,1,90,
scooby_state_401db4|22|0 89,0,0,0,0,0,0,0,0,0,0,0,0,0,0,89,
scooby_state_40222b|52|0 87,0,0,1,0,0,0,0,0,0,0,1,0,0,0,89,
scooby_state_401c5c|42|0 33,4,3,5,3,6,4,3,6,2,3,2,4,4,7,89,
scooby_state_402359|18|16 61,1,0,3,1,3,3,2,3,0,1,1,3,3,4,89,
scooby_state_401d77|11|1 0,1,1,0,1,0,0,0,1,0,0,85,0,0,0,89,
scooby_state_401db0|26|1 1,0,1,0,0,2,1,1,0,0,2,0,1,0,79,88,
scooby_state_401d77|52|1 1,0,0,0,0,0,0,0,1,0,1,85,0,0,0,88,
scooby_state_402359|48|33 49,1,5,2,3,5,4,2,4,4,2,4,2,0,1,88,
scooby_state_40221d|52|13 56,1,2,1,1,3,3,2,2,3,2,2,2,6,2,88,
scooby_state_402221|49|18 19,4,5,5,6,4,4,4,3,4,4,6,7,5,8,88,
scooby_state_401d50|12|-1 77,0,1,1,0,1,1,1,0,1,0,0,0,1,4,88,
scooby_state_401db4|46|0 87,0,0,0,0,0,0,0,0,0,0,0,0,0,0,87,
scooby_state_401d7b|47|1 0,0,1,0,0,1,1,0,0,0,0,84,0,0,0,87,
scooby_state_401de4|23|0 87,0,0,0,0,0,0,0,0,0,0,0,0,0,0,87,
scooby_state_402359|38|22 63,3,0,2,1,0,0,1,1,0,0,0,2,1,13,87,
scooby_state_401d7b|24|0 0,0,1,0,0,1,1,0,0,0,1,83,0,0,0,87,
scooby_state_401d81|0|-1 78,1,1,0,1,1,0,1,1,0,0,1,1,1,0,87,
scooby_state_401d50|25|-2 74,0,1,1,0,0,1,1,0,1,0,1,0,1,5,86,
scooby_state_402359|11|5 61,1,2,2,0,1,1,2,3,2,1,4,0,2,4,86,
scooby_state_402221|25|0 76,0,1,1,0,1,1,1,1,1,1,0,1,0,1,86,
scooby_state_401d50|26|-1 72,1,0,0,0,1,0,0,1,1,1,2,1,2,4,86,
scooby_state_401d50|54|-1 72,0,1,3,1,0,1,0,0,0,1,2,0,1,3,85,
scooby_state_402359|48|47 75,0,1,0,1,1,1,0,0,0,1,3,0,2,0,85,
scooby_state_401d81|13|-1 71,1,0,0,0,4,0,1,1,0,1,3,1,2,0,85,
scooby_state_401d7b|63|0 0,1,0,0,1,0,1,0,0,0,0,82,0,0,0,85,
scooby_state_402359|14|10 73,0,0,0,0,0,1,0,4,1,1,0,2,1,2,85,
scooby_state_402359|19|8 71,1,1,2,2,0,1,0,0,0,0,1,3,1,2,85,
scooby_state_402359|58|39 65,3,2,2,1,2,1,2,1,0,0,2,2,0,2,85,
scooby_state_401d50|59|-2 69,0,1,2,0,2,0,0,0,0,2,2,2,0,5,85,
scooby_state_401d50|27|-1 75,0,1,1,0,0,0,1,0,1,1,1,0,0,3,84,
scooby_state_402359|56|6 69,3,2,0,0,1,4,0,0,1,1,2,0,0,1,84,
scooby_state_401db4|42|0 84,0,0,0,0,0,0,0,0,0,0,0,0,0,0,84,
scooby_state_401db4|2|0 84,0,0,0,0,0,0,0,0,0,0,0,0,0,0,84,
scooby_state_401d77|27|1 2,0,0,0,0,0,0,0,2,0,0,80,0,0,0,84,
scooby_state_40222b|35|0 82,0,0,0,0,0,0,0,2,0,0,0,0,0,0,84,
scooby_state_401db4|25|0 84,0,0,0,0,0,0,0,0,0,0,0,0,0,0,84,
scooby_state_402359|32|16 64,1,3,0,2,0,0,1,4,0,1,4,1,1,2,84,
scooby_state_401d50|4|-2 71,0,1,0,0,1,0,0,0,1,1,1,0,1,7,84,
scooby_state_402359|59|40 44,7,2,3,0,2,3,4,2,3,6,3,2,0,3,84,
scooby_state_401d81|52|-2 78,2,0,0,0,0,1,0,1,0,0,1,0,0,1,84,
scooby_state_402359|50|49 33,2,5,4,1,5,5,4,2,3,3,5,3,5,4,84,
scooby_state_402359|45|23 41,1,3,3,7,4,0,1,5,2,4,4,3,3,2,83,
scooby_state_401d50|32|-2 76,0,0,1,0,1,0,0,0,0,1,1,1,0,2,83,
scooby_state_401db4|51|0 83,0,0,0,0,0,0,0,0,0,0,0,0,0,0,83,
scooby_state_401de4|51|0 83,0,0,0,0,0,0,0,0,0,0,0,0,0,0,83,
scooby_state_401d50|57|-1 68,0,1,0,0,2,0,0,0,0,1,3,2,0,5,82,
scooby_state_402359|51|34 65,2,1,1,1,0,0,0,4,0,0,3,2,0,3,82,
scooby_state_401d50|11|-1 71,0,1,2,0,1,0,1,0,1,1,1,0,1,2,82,
scooby_state_401d7b|21|1 0,0,1,0,0,1,0,0,0,0,1,79,0,0,0,82,
scooby_state_401d81|40|-2 65,1,0,1,4,3,2,0,0,1,1,1,2,0,1,82,
scooby_state_401c5c|34|0 23,5,3,5,3,4,4,4,5,4,3,2,5,3,8,81,
[...]
scooby_state_401b28|11|-20 1,0,0,0,0,0,0,0,0,0,0,0,0,0,0,1,
scooby_state_401d50|48|47 0,0,0,0,0,0,0,0,0,0,0,1,0,0,0,1,
scooby_state_401d91|27|1 1,0,0,0,0,0,0,0,0,0,0,0,0,0,0,1,
scooby_state_4005cf|10|-17 1,0,0,0,0,0,0,0,0,0,0,0,0,0,0,1,
scooby_state_402359|12|-19 0,1,0,0,0,0,0,0,0,0,0,0,0,0,0,1,
scooby_state_40221a|20|-40 0,0,0,0,0,0,0,0,0,0,0,1,0,0,0,1,
scooby_state_401b28|25|2 1,0,0,0,0,0,0,0,0,0,0,0,0,0,0,1,
scooby_state_401b28|45|-9 1,0,0,0,0,0,0,0,0,0,0,0,0,0,0,1,
scooby_state_401d88|45|25 1,0,0,0,0,0,0,0,0,0,0,0,0,0,0,1,
scooby_state_4005f2|40|23 0,1,0,0,0,0,0,0,0,0,0,0,0,0,0,1,
scooby_state_401b28|47|-12 1,0,0,0,0,0,0,0,0,0,0,0,0,0,0,1,
scooby_state_401b28|45|32 1,0,0,0,0,0,0,0,0,0,0,0,0,0,0,1,
scooby_state_401f5e|50|0 0,0,0,0,0,0,0,0,0,0,0,0,1,0,0,1,
scooby_state_402359|20|3 1,0,0,0,0,0,0,0,0,0,0,0,0,0,0,1,
scooby_state_4005f2|59|26 1,0,0,0,0,0,0,0,0,0,0,0,0,0,0,1,
scooby_state_4005ef|5|-18 1,0,0,0,0,0,0,0,0,0,0,0,0,0,0,1,
scooby_state_401b28|8|-39 1,0,0,0,0,0,0,0,0,0,0,0,0,0,0,1,
scooby_state_40061c|4|-54 0,0,0,0,0,0,0,0,0,0,0,1,0,0,0,1,
scooby_state_40061c|56|42 0,0,0,0,0,0,0,0,0,0,0,0,0,0,1,1,
scooby_state_402168|5|1 1,0,0,0,0,0,0,0,0,0,0,0,0,0,0,1,
scooby_state_401b28|7|6 1,0,0,0,0,0,0,0,0,0,0,0,0,0,0,1,
scooby_state_401d7b|55|12 0,0,0,0,0,0,0,0,0,0,0,1,0,0,0,1,
scooby_state_4005f2|18|15 0,0,0,0,1,0,0,0,0,0,0,0,0,0,0,1,
scooby_state_40061c|60|54 1,0,0,0,0,0,0,0,0,0,0,0,0,0,0,1,
scooby_state_401f6a|38|0 1,0,0,0,0,0,0,0,0,0,0,0,0,0,0,1,
scooby_state_40210f|51|3 1,0,0,0,0,0,0,0,0,0,0,0,0,0,0,1,
scooby_state_40210f|15|3 0,0,0,0,0,0,0,0,0,0,0,1,0,0,0,1,
scooby_state_401f5e|44|0 0,0,1,0,0,0,0,0,0,0,0,0,0,0,0,1,
scooby_state_401b28|15|-39 0,0,0,0,0,0,0,1,0,0,0,0,0,0,0,1,
scooby_state_4005f2|4|-48 0,0,0,0,0,0,0,0,0,0,0,0,0,1,0,1,
scooby_state_401d7b|24|-27 0,0,0,0,0,0,0,0,0,0,0,1,0,0,0,1,
scooby_state_401b40|56|26 1,0,0,0,0,0,0,0,0,0,0,0,0,0,0,1,
scooby_state_4005cf|53|9 0,0,1,0,0,0,0,0,0,0,0,0,0,0,0,1,
scooby_state_402363|61|28 0,0,0,0,0,0,0,0,0,0,0,0,0,0,1,1,
scooby_state_402359|61|61 0,0,0,0,0,0,0,0,0,1,0,0,0,0,0,1,
scooby_state_401b28|19|-30 1,0,0,0,0,0,0,0,0,0,0,0,0,0,0,1,
scooby_state_401d7b|44|8 0,0,0,0,0,0,0,0,0,0,0,1,0,0,0,1,
scooby_state_401c58|31|-2 0,0,0,0,0,0,0,0,0,0,0,0,0,0,1,1,
scooby_state_402359|5|-42 0,0,0,0,0,0,0,0,0,0,0,0,0,1,0,1,
scooby_state_4005cf|48|6 0,0,0,0,0,0,0,0,0,0,0,1,0,0,0,1,
scooby_state_401d7b|22|3 0,0,0,0,0,0,0,0,0,0,0,1,0,0,0,1,
scooby_state_40210f|30|-22 0,0,0,0,0,0,0,0,0,0,0,1,0,0,0,1,
scooby_state_4005f2|60|35 0,0,0,0,0,0,0,0,0,0,0,0,0,0,1,1,
scooby_state_401b28|17|-8 1,0,0,0,0,0,0,0,0,0,0,0,0,0,0,1,
scooby_state_402359|28|4 0,0,0,0,0,0,0,1,0,0,0,0,0,0,0,1,
scooby_state_4005eb|0|-57 1,0,0,0,0,0,0,0,0,0,0,0,0,0,0,1,
scooby_state_401d77|58|45 0,0,0,0,0,0,0,0,0,0,0,1,0,0,0,1,
scooby_state_401b28|55|45 1,0,0,0,0,0,0,0,0,0,0,0,0,0,0,1,
scooby_state_4005e1|4|-58 1,0,0,0,0,0,0,0,0,0,0,0,0,0,0,1,
scooby_state_40061c|53|1 0,0,0,0,0,0,0,0,0,0,0,1,0,0,0,1,
scooby_state_401de4|55|26 1,0,0,0,0,0,0,0,0,0,0,0,0,0,0,1,
scooby_state_402363|9|-48 0,0,0,0,0,0,0,0,0,0,0,1,0,0,0,1,
scooby_state_40061c|4|-23 0,0,0,0,0,0,0,0,0,0,0,0,0,1,0,1,
scooby_state_40221a|45|-2 0,0,0,0,0,0,1,0,0,0,0,0,0,0,0,1,
scooby_state_4005cf|34|27 0,0,0,0,0,0,0,0,0,0,0,1,0,0,0,1,
scooby_state_40210f|11|-25 0,1,0,0,0,0,0,0,0,0,0,0,0,0,0,1,
scooby_state_401f5e|34|28 1,0,0,0,0,0,0,0,0,0,0,0,0,0,0,1,
scooby_state_4005f2|57|32 0,0,0,0,0,0,0,0,0,0,0,0,0,0,1,1,
scooby_state_40211d|19|-28 0,0,0,1,0,0,0,0,0,0,0,0,0,0,0,1,
scooby_state_402359|55|6 0,0,0,0,0,1,0,0,0,0,0,0,0,0,0,1,
scooby_state_4005f2|13|-28 0,0,0,0,0,0,0,1,0,0,0,0,0,0,0,1,
scooby_state_401d77|38|-15 0,0,0,0,0,0,0,0,0,0,0,1,0,0,0,1,
scooby_state_401d77|27|-23 0,0,0,0,0,0,0,0,0,0,0,1,0,0,0,1,
scooby_state_4005f2|7|-19 0,0,0,0,0,0,0,0,0,0,0,0,0,0,1,1,
scooby_state_4005cf|11|-30 0,0,0,0,0,0,0,1,0,0,0,0,0,0,0,1,
scooby_state_401b8f|42|1 0,0,0,0,0,0,0,0,0,0,0,1,0,0,0,1,
scooby_state_401d50|7|-43 1,0,0,0,0,0,0,0,0,0,0,0,0,0,0,1,
scooby_state_4005f2|55|13 1,0,0,0,0,0,0,0,0,0,0,0,0,0,0,1,
scooby_state_4005f2|10|-26 0,0,0,0,0,1,0,0,0,0,0,0,0,0,0,1,
scooby_state_401d58|16|0 0,0,0,0,0,0,0,0,0,0,0,0,0,1,0,1,
scooby_state_40211d|54|49 0,0,0,0,0,0,0,0,0,1,0,0,0,0,0,1,
scooby_state_402363|19|1 1,0,0,0,0,0,0,0,0,0,0,0,0,0,0,1,
scooby_state_402359|11|6 0,0,0,0,0,0,1,0,0,0,0,0,0,0,0,1,
scooby_state_402359|26|21 0,0,0,0,0,0,0,0,0,0,1,0,0,0,0,1,
scooby_state_401c58|62|44 0,0,0,0,0,0,0,0,0,0,0,1,0,0,0,1,
scooby_state_401d50|63|46 0,0,0,0,0,0,1,0,0,0,0,0,0,0,0,1,
scooby_state_40210f|21|-15 0,0,1,0,0,0,0,0,0,0,0,0,0,0,0,1,
scooby_state_401de4|8|-25 1,0,0,0,0,0,0,0,0,0,0,0,0,0,0,1,
scooby_state_401b28|61|9 1,0,0,0,0,0,0,0,0,0,0,0,0,0,0,1,
scooby_state_4005cf|3|-29 0,0,0,0,0,0,0,0,0,0,0,0,0,0,1,1,
scooby_state_4005f2|3|-10 0,0,0,0,0,0,1,0,0,0,0,0,0,0,0,1,
scooby_state_4005cf|61|33 0,0,0,0,0,0,0,0,0,0,0,1,0,0,0,1,
scooby_state_401c58|50|4 0,0,0,0,0,0,0,0,0,0,0,0,0,1,0,1,
scooby_state_401d7b|11|-12 0,0,0,0,0,0,0,0,0,0,0,1,0,0,0,1,
scooby_state_402212|62|47 0,0,1,0,0,0,0,0,0,0,0,0,0,0,0,1,
scooby_state_401de4|15|-15 1,0,0,0,0,0,0,0,0,0,0,0,0,0,0,1,
scooby_state_401b28|42|-20 0,0,1,0,0,0,0,0,0,0,0,0,0,0,0,1,
scooby_state_401d77|38|-3 0,0,0,0,0,0,0,0,0,0,0,1,0,0,0,1,
scooby_state_402363|20|-6 1,0,0,0,0,0,0,0,0,0,0,0,0,0,0,1,
scooby_state_402363|62|32 0,0,1,0,0,0,0,0,0,0,0,0,0,0,0,1,
scooby_state_401d77|50|6 0,0,0,0,0,0,0,0,0,0,0,1,0,0,0,1,
scooby_state_4005f2|45|36 1,0,0,0,0,0,0,0,0,0,0,0,0,0,0,1,
scooby_state_402363|23|17 0,0,0,1,0,0,0,0,0,0,0,0,0,0,0,1,
scooby_state_4005ef|2|-54 1,0,0,0,0,0,0,0,0,0,0,0,0,0,0,1,
scooby_state_401b28|18|-2 1,0,0,0,0,0,0,0,0,0,0,0,0,0,0,1,
scooby_state_401db4|0|-9 1,0,0,0,0,0,0,0,0,0,0,0,0,0,0,1,
scooby_state_4005f2|2|-60 0,0,0,0,0,0,0,0,0,0,0,1,0,0,0,1,
scooby_state_401d7b|57|8 0,0,0,0,0,0,0,0,0,0,0,1,0,0,0,1,
scooby_state_4005f2|30|-29 1,0,0,0,0,0,0,0,0,0,0,0,0,0,0,1,
scooby_state_401d77|42|32 0,0,0,0,0,0,0,0,0,0,0,1,0,0,0,1,
scooby_state_401f6e|54|2 0,0,0,0,0,0,0,0,0,0,0,0,0,0,1,1,
scooby_state_4005e1|1|-42 0,0,0,0,0,0,0,0,0,0,0,1,0,0,0,1,
scooby_state_4005f2|4|-36 0,0,0,0,0,0,0,0,0,0,0,0,0,0,1,1,
scooby_state_401d7b|31|3 0,0,0,0,0,0,0,0,0,0,0,1,0,0,0,1,
scooby_state_402101|5|-55 1,0,0,0,0,0,0,0,0,0,0,0,0,0,0,1,
scooby_state_401b28|49|45 1,0,0,0,0,0,0,0,0,0,0,0,0,0,0,1,
scooby_state_401b28|26|16 1,0,0,0,0,0,0,0,0,0,0,0,0,0,0,1,
scooby_state_4005cf|12|12 1,0,0,0,0,0,0,0,0,0,0,0,0,0,0,1,
scooby_state_401c58|44|-16 0,0,0,0,0,0,0,0,0,0,0,1,0,0,0,1,
scooby_state_401b28|38|-10 1,0,0,0,0,0,0,0,0,0,0,0,0,0,0,1,
scooby_state_40061c|0|-43 0,0,0,0,0,0,0,0,0,0,0,1,0,0,0,1,
scooby_state_400610|45|5 1,0,0,0,0,0,0,0,0,0,0,0,0,0,0,1,
scooby_state_402363|23|-1 0,0,0,0,0,0,1,0,0,0,0,0,0,0,0,1,
scooby_state_401de4|41|-1 1,0,0,0,0,0,0,0,0,0,0,0,0,0,0,1,
scooby_state_4005cf|25|-6 1,0,0,0,0,0,0,0,0,0,0,0,0,0,0,1,
scooby_state_402359|18|-44 0,1,0,0,0,0,0,0,0,0,0,0,0,0,0,1,
scooby_state_40210f|11|-5 0,0,1,0,0,0,0,0,0,0,0,0,0,0,0,1,
scooby_state_4005f2|3|2 0,0,0,0,0,0,0,0,0,1,0,0,0,0,0,1,
scooby_state_400610|2|0 0,0,0,0,0,0,0,0,0,0,0,0,0,0,1,1,
scooby_state_401d77|5|-50 0,0,0,0,0,0,0,0,0,0,0,1,0,0,0,1,
scooby_state_401d50|59|8 0,0,0,0,0,0,0,0,0,0,0,1,0,0,0,1,
scooby_state_401d50|25|-33 1,0,0,0,0,0,0,0,0,0,0,0,0,0,0,1,
scooby_state_4005e7|0|-42 0,0,0,0,0,0,0,0,1,0,0,0,0,0,0,1,
scooby_state_401c58|8|-38 0,0,0,0,0,0,0,0,0,0,0,0,0,1,0,1,
scooby_state_4005cf|17|-14 1,0,0,0,0,0,0,0,0,0,0,0,0,0,0,1,
scooby_state_4005cf|8|-48 1,0,0,0,0,0,0,0,0,0,0,0,0,0,0,1,
scooby_state_401b28|20|-10 0,0,0,0,0,0,0,1,0,0,0,0,0,0,0,1,
scooby_state_4005e7|0|-5 0,0,0,0,0,1,0,0,0,0,0,0,0,0,0,1,
scooby_state_40221a|4|-35 0,0,0,0,0,0,0,1,0,0,0,0,0,0,0,1,
scooby_state_401b28|34|23 1,0,0,0,0,0,0,0,0,0,0,0,0,0,0,1,
scooby_state_40061c|39|19 0,0,0,0,0,0,0,0,0,1,0,0,0,0,0,1,
scooby_state_4005f2|48|48 0,0,0,0,0,0,0,0,0,0,0,0,0,1,0,1,
scooby_state_40221a|35|-27 0,0,0,1,0,0,0,0,0,0,0,0,0,0,0,1,
scooby_state_4005f2|43|19 1,0,0,0,0,0,0,0,0,0,0,0,0,0,0,1,
scooby_state_402363|17|6 0,1,0,0,0,0,0,0,0,0,0,0,0,0,0,1,
scooby_state_40221a|44|-17 1,0,0,0,0,0,0,0,0,0,0,0,0,0,0,1,
scooby_state_4005f2|33|30 0,0,0,0,0,0,0,0,0,0,0,0,0,0,1,1,
scooby_state_401b2e|22|0 0,0,0,0,0,0,0,0,0,0,0,1,0,0,0,1,
scooby_state_401b28|58|1 1,0,0,0,0,0,0,0,0,0,0,0,0,0,0,1,
scooby_state_401d77|19|-9 0,0,0,0,0,0,0,0,0,0,0,1,0,0,0,1,
scooby_state_4005f2|42|42 0,0,0,0,0,0,0,0,1,0,0,0,0,0,0,1,
scooby_state_4005cf|29|2 0,1,0,0,0,0,0,0,0,0,0,0,0,0,0,1,
scooby_state_4005cf|6|-24 0,0,0,0,0,0,0,0,0,1,0,0,0,0,0,1,
scooby_state_401f6e|20|0 0,0,0,0,0,0,0,0,0,0,0,0,0,0,1,1,
scooby_state_401d7b|62|45 0,0,0,0,0,0,0,0,0,0,0,1,0,0,0,1,
scooby_state_4005ef|57|43 0,0,0,1,0,0,0,0,0,0,0,0,0,0,0,1,
scooby_state_401b1a|36|0 0,0,0,0,0,0,0,0,0,0,0,0,0,0,1,1,
scooby_state_4005f2|4|-55 0,0,0,0,0,0,0,0,0,1,0,0,0,0,0,1,
scooby_state_401c78|15|-43 0,0,0,0,0,0,0,0,0,0,0,1,0,0,0,1,
scooby_state_40061c|16|-20 0,1,0,0,0,0,0,0,0,0,0,0,0,0,0,1,
scooby_state_401d77|32|-13 0,0,0,0,0,0,0,0,0,0,0,1,0,0,0,1,
scooby_state_4005cf|22|-15 1,0,0,0,0,0,0,0,0,0,0,0,0,0,0,1,
scooby_state_401db4|18|-19 1,0,0,0,0,0,0,0,0,0,0,0,0,0,0,1,
scooby_state_40061c|17|17 1,0,0,0,0,0,0,0,0,0,0,0,0,0,0,1,
scooby_state_40210f|48|-4 1,0,0,0,0,0,0,0,0,0,0,0,0,0,0,1,
scooby_state_401d7b|57|45 0,0,0,0,0,0,0,0,0,0,0,1,0,0,0,1,
scooby_state_40210f|50|45 0,0,0,0,0,0,0,0,0,0,0,0,1,0,0,1,
scooby_state_402359|30|12 0,0,1,0,0,0,0,0,0,0,0,0,0,0,0,1,
scooby_state_4005cf|43|24 1,0,0,0,0,0,0,0,0,0,0,0,0,0,0,1,
scooby_state_4005cf|52|6 1,0,0,0,0,0,0,0,0,0,0,0,0,0,0,1,
scooby_state_401c58|5|-14 0,0,0,1,0,0,0,0,0,0,0,0,0,0,0,1,
scooby_state_4005cf|13|12 0,0,0,0,0,1,0,0,0,0,0,0,0,0,0,1,
scooby_state_401b28|10|-51 1,0,0,0,0,0,0,0,0,0,0,0,0,0,0,1,
scooby_state_40221a|30|13 1,0,0,0,0,0,0,0,0,0,0,0,0,0,0,1,
scooby_state_4005f2|39|31 0,0,0,0,0,0,0,0,0,1,0,0,0,0,0,1,
scooby_state_402359|60|28 1,0,0,0,0,0,0,0,0,0,0,0,0,0,0,1,
scooby_state_401b28|50|-10 1,0,0,0,0,0,0,0,0,0,0,0,0,0,0,1,
scooby_state_4005cf|25|-17 1,0,0,0,0,0,0,0,0,0,0,0,0,0,0,1,
scooby_state_40221a|26|-18 0,0,0,0,0,0,0,0,0,0,1,0,0,0,0,1,
scooby_state_401b28|42|-19 0,0,0,0,0,0,0,1,0,0,0,0,0,0,0,1,
scooby_state_401b28|19|7 0,0,0,0,0,0,0,0,0,0,0,1,0,0,0,1,
scooby_state_40061c|17|-2 0,0,0,0,0,0,0,0,0,0,0,1,0,0,0,1,
scooby_state_4005f2|14|-46 0,0,0,0,0,0,0,0,0,0,0,0,0,0,1,1,
scooby_state_40221a|49|17 1,0,0,0,0,0,0,0,0,0,0,0,0,0,0,1,
scooby_state_4005f2|10|-41 0,0,0,0,0,0,0,0,0,0,0,0,0,0,1,1,
scooby_state_402359|32|-26 1,0,0,0,0,0,0,0,0,0,0,0,0,0,0,1,
scooby_state_402363|51|19 1,0,0,0,0,0,0,0,0,0,0,0,0,0,0,1,
scooby_state_401db4|0|-7 1,0,0,0,0,0,0,0,0,0,0,0,0,0,0,1,
scooby_state_401b28|61|8 1,0,0,0,0,0,0,0,0,0,0,0,0,0,0,1,
scooby_state_401b28|35|27 1,0,0,0,0,0,0,0,0,0,0,0,0,0,0,1,
scooby_state_401b28|59|55 1,0,0,0,0,0,0,0,0,0,0,0,0,0,0,1,
scooby_state_401b40|56|17 0,0,0,0,1,0,0,0,0,0,0,0,0,0,0,1,
scooby_state_401d50|43|6 0,0,0,0,0,0,0,0,0,0,0,1,0,0,0,1,
scooby_state_402221|57|52 0,0,0,0,0,0,0,0,0,0,0,0,0,0,1,1,
scooby_state_401f9e|25|0 1,0,0,0,0,0,0,0,0,0,0,0,0,0,0,1,
scooby_state_401bed|25|6 0,0,0,0,0,0,0,0,0,0,0,0,0,0,1,1,
scooby_state_4005f2|53|-6 0,0,0,0,0,0,1,0,0,0,0,0,0,0,0,1,
scooby_state_4005cf|11|10 0,0,0,0,0,0,0,0,0,0,0,1,0,0,0,1,
scooby_state_401db0|43|-1 0,0,0,0,0,0,0,0,0,0,0,0,0,0,1,1,
scooby_state_401de4|24|-23 1,0,0,0,0,0,0,0,0,0,0,0,0,0,0,1,
scooby_state_401d77|59|21 0,0,0,0,0,0,0,0,0,0,0,1,0,0,0,1,
scooby_state_4005f2|55|46 0,0,0,0,0,0,0,0,0,0,0,1,0,0,0,1,
scooby_state_40211d|48|27 0,0,0,0,0,0,0,0,0,0,0,0,0,1,0,1,
scooby_state_402359|26|-32 0,0,0,0,1,0,0,0,0,0,0,0,0,0,0,1,
scooby_state_401b28|61|34 1,0,0,0,0,0,0,0,0,0,0,0,0,0,0,1,
scooby_state_40221a|29|4 0,0,0,0,0,0,0,1,0,0,0,0,0,0,0,1,
scooby_state_40221a|44|-7 0,0,0,0,0,0,0,1,0,0,0,0,0,0,0,1,
scooby_state_40061c|46|-17 0,0,0,0,0,0,0,0,0,0,0,1,0,0,0,1,
scooby_state_4005f2|48|31 0,0,0,0,0,0,0,0,0,0,0,0,1,0,0,1,
scooby_state_401b28|20|8 1,0,0,0,0,0,0,0,0,0,0,0,0,0,0,1,
scooby_state_401e1d|11|1 0,0,0,0,0,0,0,0,0,0,0,1,0,0,0,1,
scooby_state_402359|23|-19 0,0,0,0,0,1,0,0,0,0,0,0,0,0,0,1,
scooby_state_401b28|2|-12 1,0,0,0,0,0,0,0,0,0,0,0,0,0,0,1,
scooby_state_40222b|23|-3 1,0,0,0,0,0,0,0,0,0,0,0,0,0,0,1,
scooby_state_4005f2|3|-31 1,0,0,0,0,0,0,0,0,0,0,0,0,0,0,1,
scooby_state_402108|60|8 1,0,0,0,0,0,0,0,0,0,0,0,0,0,0,1,
scooby_state_4005f2|50|18 0,0,0,0,0,0,0,0,0,0,0,1,0,0,0,1,
scooby_state_401d7b|36|21 0,0,0,0,0,0,0,0,0,0,0,1,0,0,0,1,
scooby_state_4005f2|33|-25 0,0,0,0,0,0,1,0,0,0,0,0,0,0,0,1,
scooby_state_401b28|19|9 1,0,0,0,0,0,0,0,0,0,0,0,0,0,0,1,
scooby_state_401b28|52|10 1,0,0,0,0,0,0,0,0,0,0,0,0,0,0,1,
scooby_state_4005f2|47|41 0,0,0,0,0,0,0,0,0,0,1,0,0,0,0,1,
scooby_state_40061c|50|21 0,1,0,0,0,0,0,0,0,0,0,0,0,0,0,1,
scooby_state_401db4|24|-20 1,0,0,0,0,0,0,0,0,0,0,0,0,0,0,1,
scooby_state_40221a|51|27 0,0,0,0,0,0,0,0,0,0,0,0,1,0,0,1,

scooby_action_0_deg_dist 0,94064,0,0,0,0,0,0,0,0,0,0,0,0,0,0,
scooby_action_-6_deg_dist 0,6086,8,0,8,0,0,0,0,0,0,0,0,0,0,0,
scooby_action_4_deg_dist 0,6213,35,0,11,0,0,0,0,0,0,0,0,0,0,0,
scooby_action_1_deg_dist 0,1298427,9419,0,5468,0,1619,0,0,0,0,0,0,0,0,0,
scooby_action_30_deg_dist 0,4844,6,0,0,0,0,0,0,0,0,0,0,0,0,0,
scooby_action_3_deg_dist 0,6301,28,0,23,0,11,0,0,0,0,0,0,0,0,0,
scooby_action_32_deg_dist 0,4884,14,0,1,0,0,0,0,0,0,0,0,0,0,0,
scooby_action_5_deg_dist 0,5840,14,0,8,0,3,0,0,0,0,0,0,0,0,0,
scooby_action_10_deg_dist 0,5596,8,0,8,0,0,0,0,0,0,0,0,0,0,0,
scooby_action_11_deg_dist 0,5651,18,0,7,0,0,0,0,0,0,0,0,0,0,0,
scooby_action_12_deg_dist 0,5478,17,0,10,0,1,0,0,0,0,0,0,0,0,0,
scooby_action_23_deg_dist 0,5197,5,0,3,0,0,0,0,0,0,0,0,0,0,0,
scooby_action_-1_deg_dist 0,32994,665,0,190,0,10,0,0,0,0,0,0,0,0,0,
scooby_action_22_deg_dist 0,5130,18,0,7,0,0,0,0,0,0,0,0,0,0,0,
scooby_action_-3_deg_dist 0,6190,31,0,17,0,0,0,0,0,0,0,0,0,0,0,

scooby_track_called 1510586
scooby_track_same_address 9412
scooby_track_evict 1500918

scooby_reward_demand_called 1510586
scooby_reward_demand_pt_not_found 1448711
scooby_reward_demand_pt_found 61875
scooby_reward_demand_pt_found_total 61875
scooby_reward_demand_has_reward 1434
scooby_reward_train_called 1403462
scooby_reward_assign_reward_called 1500921
scooby_reward_no_pref 94049
scooby_reward_incorrect 1309413
scooby_reward_correct_untimely 53864
scooby_reward_correct_timely 6577
scooby_reward_out_of_bounds 37018
scooby_reward_tracker_hit 0

scooby_reward_none_low_bw 94049
scooby_reward_none_high_bw 0
scooby_reward_incorrect_low_bw 1309413
scooby_reward_incorrect_high_bw 0
scooby_reward_correct_untimely_low_bw 53864
scooby_reward_correct_untimely_high_bw 0
scooby_reward_correct_timely_low_bw 6577
scooby_reward_correct_timely_high_bw 0
scooby_reward_out_of_bounds_low_bw 37018
scooby_reward_out_of_bounds_high_bw 0
scooby_reward_tracker_hit_low_bw 0
scooby_reward_tracker_hit_high_bw 0

scooby_reward_1 0,1239455,42031,4238,23110,0,
scooby_reward_3 0,5584,119,161,309,0,
scooby_reward_4 0,5442,57,120,411,0,
scooby_reward_5 0,5169,56,83,413,0,
scooby_reward_10 0,4474,37,69,869,0,
scooby_reward_11 0,4347,40,82,1010,0,
scooby_reward_12 0,4185,40,64,1072,0,
scooby_reward_22 0,3107,26,42,1833,0,
scooby_reward_23 0,3080,38,54,1911,0,
scooby_reward_30 0,2297,25,34,2380,0,
scooby_reward_32 0,2297,28,43,2451,0,
scooby_reward_-1 0,19214,11224,1310,495,0,
scooby_reward_-3 0,5558,80,149,232,0,
scooby_reward_-6 0,5204,63,128,522,0,
scooby_reward_0 94049,0,0,0,0,0,

scooby_train_called 1500917
scooby_train_compute_reward 1403462

scooby_register_fill_called 1132134
scooby_register_fill_set 1117814
scooby_register_fill_set_total 1117814

scooby_register_prefetch_hit_called 211366
scooby_register_prefetch_hit_set 202132
scooby_register_prefetch_hit_set_total 202132

scooby_pref_issue_scooby 1402735

learning_engine_featurewise.action.called 1510586
learning_engine_featurewise.action.explore 2783
learning_engine_featurewise.action.exploit 1507803
learning_engine_featurewise.action.fallback 1238119
learning_engine_featurewise.action.dyn_fallback_saved_bw 0
learning_engine_featurewise.action.dyn_fallback_saved_bw_acc 134151
learning_engine_featurewise.action.index_1_explored 179
learning_engine_featurewise.action.index_1_exploited 1314754
learning_engine_featurewise.action.index_3_explored 205
learning_engine_featurewise.action.index_3_exploited 6158
learning_engine_featurewise.action.index_4_explored 193
learning_engine_featurewise.action.index_4_exploited 6066
learning_engine_featurewise.action.index_5_explored 178
learning_engine_featurewise.action.index_5_exploited 5687
learning_engine_featurewise.action.index_10_explored 213
learning_engine_featurewise.action.index_10_exploited 5399
learning_engine_featurewise.action.index_11_explored 164
learning_engine_featurewise.action.index_11_exploited 5512
learning_engine_featurewise.action.index_12_explored 192
learning_engine_featurewise.action.index_12_exploited 5314
learning_engine_featurewise.action.index_22_explored 192
learning_engine_featurewise.action.index_22_exploited 4963
learning_engine_featurewise.action.index_23_explored 184
learning_engine_featurewise.action.index_23_exploited 5021
learning_engine_featurewise.action.index_30_explored 191
learning_engine_featurewise.action.index_30_exploited 4659
learning_engine_featurewise.action.index_32_explored 161
learning_engine_featurewise.action.index_32_exploited 4738
learning_engine_featurewise.action.index_-1_explored 183
learning_engine_featurewise.action.index_-1_exploited 33676
learning_engine_featurewise.action.index_-3_explored 181
learning_engine_featurewise.action.index_-3_exploited 6057
learning_engine_featurewise.action.index_-6_explored 177
learning_engine_featurewise.action.index_-6_exploited 5925
learning_engine_featurewise.action.index_0_explored 190
learning_engine_featurewise.action.index_0_exploited 93874
learning_engine_featurewise.learn.called 1500917
learning_engine_featurewise.learn.su_skip_PC 0
learning_engine_featurewise.learn.su_skip_PC_Delta 0

learning_engine_featurewise.q_value_histogram.bucket_0 101704
learning_engine_featurewise.q_value_histogram.bucket_1 5929
learning_engine_featurewise.q_value_histogram.bucket_2 1282454
learning_engine_featurewise.q_value_histogram.bucket_3 53351
learning_engine_featurewise.q_value_histogram.bucket_4 33310
learning_engine_featurewise.q_value_histogram.bucket_5 16523
learning_engine_featurewise.q_value_histogram.bucket_6 14532
learning_engine_featurewise.q_value_histogram.bucket_7 0

learning_engine_featurewise.consensus.total 1507803
learning_engine_featurewise.consensus.feature_align_PC 1357959
learning_engine_featurewise.consensus.feature_align_PC_ratio 0.90
learning_engine_featurewise.consensus.feature_align_PC_Delta 1356840
learning_engine_featurewise.consensus.feature_align_PC_Delta_ratio 0.90
learning_engine_featurewise.consensus.feature_align_all 1314294
learning_engine_featurewise.consensus.feature_align_all_ratio 0.87

learning_engine_featurewise.feature_PC_min_weight 1000000.00000000
learning_engine_featurewise.feature_PC_max_weight 0.00000000
learning_engine_featurewise.feature_PC_Delta_min_weight 1000000.00000000
learning_engine_featurewise.feature_PC_Delta_max_weight 0.00000000
unique_pcs 109
unique_pages 31856
unique_trigger_pcs 74
total_bitmaps_seen 0
unique_bitmaps_seen 0

scooby_bw_epochs 393503
scooby_bw_level_0 261647
scooby_bw_level_1 119883
scooby_bw_level_2 11217
scooby_bw_level_3 756

scooby_ipc_epochs 0
scooby_ipc_level_0 0
scooby_ipc_level_1 0
scooby_ipc_level_2 0
scooby_ipc_level_3 0

scooby_cache_acc_epochs 92228
scooby_cache_acc_level_0 9146
scooby_cache_acc_level_1 10082
scooby_cache_acc_level_2 21849
scooby_cache_acc_level_3 32983
scooby_cache_acc_level_4 13766
scooby_cache_acc_level_5 2927
scooby_cache_acc_level_6 729
scooby_cache_acc_level_7 278
scooby_cache_acc_level_8 146
scooby_cache_acc_level_9 322

Channel_0_RQ_row_buffer_hit 44756
Channel_0_RQ_row_buffer_miss 820936
Channel_0_WQ_row_buffer_hit 21756
Channel_0_WQ_row_buffer_miss 32870
Channel_0_WQ_full 0
Channel_0_dbus_congested 199923

avg_congested_cycle 7

DRAM_bw_pochs 393503
DRAM_bw_level_0 261647
DRAM_bw_level_1 119883
DRAM_bw_level_2 11217
DRAM_bw_level_3 756
