Original cmd-> /cluster/home/vlnitu/CA-Lab4-24-vlnitu/Pythia/bin/perceptron-no-multi-no-ship-1core --warmup_instructions=1000000 --simulation_instructions=10000000 --l2c_prefetcher_types=scooby --config=/cluster/home/vlnitu/CA-Lab4-24-vlnitu/Pythia/config/pythia.ini --mail-type=BEGIN,END  -traces /cluster/home/vlnitu/CA-Lab4-24-vlnitu/Pythia/traces/436.cactusADM-1804B.champsimtrace.xz
*************************************************
   ChampSim Multicore Out-of-Order Simulator
   Last compiled: Nov 19 2024 20:10:11
*************************************************
parsing config file: /cluster/home/vlnitu/CA-Lab4-24-vlnitu/Pythia/config/pythia.ini
unable to parse section: , name: mail-type, value: BEGIN,END

trace_0 /cluster/home/vlnitu/CA-Lab4-24-vlnitu/Pythia/traces/436.cactusADM-1804B.champsimtrace.xz
adding L2C_PREFETCHER: Scooby
Initialize SHIP state
warmup_instructions 1000000
simulation_instructions 10000000
champsim_seed 271
measure_ipc 0
measure_ipc_epoch 1000
measure_dram_bw 1
measure_dram_bw_epoch 256
measure_cache_acc 1
measure_cache_acc_epoch 1024
l1d_perfect 0
l2c_perfect 0
llc_perfect 0
l1d_semi_perfect 0
l2c_semi_perfect 0
llc_semi_perfect 0
semi_perfect_cache_page_buffer_size 64

num_cpus 1
cpu_freq 4000
dram_io_freq 2400
page_size 4096
block_size 64
max_read_per_cycle 8
max_fill_per_cycle 1
dram_channels 1
log2_dram_channels 0
dram_ranks 1
dram_banks 8
dram_rows 65536
dram_columns 128
dram_row_size 8
dram_size 4096
dram_pages 1048576

fetch_width 6
decode_width 6
exec_width 4
lq_width 2
sq_width 2
retire_width 4
scheduler_size 128
branch_mispredict_penalty 20
rob_size 256
lq_size 72
sq_size 56
num_instr_destinations_sparc 4
num_instr_destinations 2
num_instr_sources 4

itlb_set 16
itlb_way 8
itlb_rq_size 16
itlb_wq_size 16
itlb_pq_size 0
itlb_mshr_size 8
itlb_latency 1

dtlb_set 16
dtlb_way 4
dtlb_rq_size 16
dtlb_wq_size 16
dtlb_pq_size 0
dtlb_mshr_size 8
dtlb_latency 1

stlb_set 128
stlb_way 12
stlb_rq_size 32
stlb_wq_size 32
stlb_pq_size 0
stlb_mshr_size 16
stlb_latency 8

l1i_size 32
l1i_set 64
l1i_way 8
l1i_rq_size 64
l1i_wq_size 64
l1i_pq_size 8
l1i_mshr_size 8
l1i_latency 1

l1d_size 32
l1d_set 64
l1d_way 8
l1d_rq_size 64
l1d_wq_size 64
l1d_pq_size 8
l1d_mshr_size 16
l1d_latency 4

l2c_size 256
l2c_set 512
l2c_way 8
l2c_rq_size 32
l2c_wq_size 32
l2c_pq_size 32
l2c_mshr_size 32
l2c_latency 10

llc_size 2048
llc_set 2048
llc_way 16
llc_rq_size 32
llc_wq_size 32
llc_pq_size 32
llc_mshr_size 64
llc_latency 20

dram_channel_width 8
dram_wq_size 64
dram_rq_size 64
tRP 15
tRCD 15
tCAS 12.5
dram_dbus_turn_around_time 30
dram_write_high_wm 56
dram_write_low_wm 48
min_dram_writes_per_switch 16
dram_mtps 2400
dram_dbus_return_time 13

scooby_alpha 0.0065088
scooby_gamma 0.556301
scooby_epsilon 0.00182284
scooby_state_num_bits 10
scooby_max_states 1024
scooby_seed 200
scooby_policy EGreedy
scooby_learning_type SARSA
scooby_actions 1,3,4,5,10,11,12,22,23,30,32,-1,-3,-6,0,
scooby_max_actions 15
scooby_pt_size 256
scooby_st_size 64
scooby_max_pcs 5
scooby_max_offsets 5
scooby_max_deltas 5
scooby_reward_none -4
scooby_reward_incorrect -8
scooby_reward_correct_untimely 12
scooby_reward_correct_timely 20
scooby_brain_zero_init 0
scooby_enable_reward_all 0
scooby_enable_track_multiple 0
scooby_enable_reward_out_of_bounds 1
scooby_reward_out_of_bounds -12
scooby_state_type 1
scooby_state_hash_type 11
scooby_access_debug 0
scooby_print_access_debug 0
scooby_print_access_debug_pc deadbeef
scooby_print_access_debug_pc_count 0
scooby_print_trace 0
scooby_enable_state_action_stats 1
scooby_enable_reward_tracker_hit 0
scooby_reward_tracker_hit -2
scooby_enable_featurewise_engine 1
scooby_pref_degree 1
scooby_enable_dyn_degree 1
scooby_max_to_avg_q_thresholds 0.5,1,2,
scooby_dyn_degrees 1,2,4,4,
scooby_multi_deg_select_type 2
scooby_last_pref_offset_conf_thresholds 1,3,8,
scooby_dyn_degrees_type2 1,2,4,6,
scooby_action_tracker_size 2
scooby_high_bw_thresh 4
scooby_enable_hbw_reward 1
scooby_reward_hbw_correct_timely 20
scooby_reward_hbw_correct_untimely 12
scooby_reward_hbw_incorrect -14
scooby_reward_hbw_none -2
scooby_reward_hbw_out_of_bounds -12
scooby_reward_hbw_tracker_hit -2
scooby_last_pref_offset_conf_thresholds_hbw 1,3,8,
scooby_dyn_degrees_type2_hbw 1,2,4,6,

le_enable_trace 0
le_trace_interval 0
le_trace_file_name 
le_trace_state 0
le_enable_score_plot 0
le_plot_file_name 
le_plot_actions 
le_enable_action_trace 0
le_action_trace_interval 0
le_action_trace_name 
le_enable_action_plot 0

le_featurewise_active_features PC, PC_Delta
le_featurewise_num_tilings 3,3,
le_featurewise_num_tiles 128,128,
le_featurewise_hash_types 2,2,
le_featurewise_enable_tiling_offset 1,1,
le_featurewise_max_q_thresh 0.5
le_featurewise_enable_action_fallback 1
le_featurewise_feature_weights 1,1,
le_featurewise_enable_dynamic_weight 0
le_featurewise_weight_gradient 0.001
le_featurewise_disable_adjust_weight_all_features_align 1
le_featurewise_selective_update 0
le_featurewise_pooling_type 2
le_featurewise_enable_dyn_action_fallback 1
le_featurewise_bw_acc_check_level 1
le_featurewise_acc_thresh 2
le_featurewise_enable_trace 0
le_featurewise_trace_feature_type 0
le_featurewise_trace_feature 
le_featurewise_trace_interval 0
le_featurewise_trace_record_count 0
le_featurewise_trace_file_name 
le_featurewise_enable_score_plot 0
le_featurewise_plot_actions 
le_featurewise_plot_file_name 


Heartbeat CPU  0 instructions:    1000000 cycles:     702364 heartbeat IPC: 1.42376 cumulative IPC: 1.42376 (Simulation time: 0 hr 0 min 2 sec) 

Warmup complete CPU  0 instructions:    1000004 cycles:     702365 (Simulation time: 0 hr 0 min 2 sec) 

Heartbeat CPU  0 instructions:    2000000 cycles:    2476597 heartbeat IPC: 0.56362 cumulative IPC: 0.56362 (Simulation time: 0 hr 0 min 4 sec) 
Heartbeat CPU  0 instructions:    3000002 cycles:    4399304 heartbeat IPC: 0.52010 cumulative IPC: 0.54099 (Simulation time: 0 hr 0 min 6 sec) 
Heartbeat CPU  0 instructions:    4000000 cycles:    6317757 heartbeat IPC: 0.52125 cumulative IPC: 0.53425 (Simulation time: 0 hr 0 min 9 sec) 
Heartbeat CPU  0 instructions:    5000000 cycles:    8073411 heartbeat IPC: 0.56959 cumulative IPC: 0.54266 (Simulation time: 0 hr 0 min 11 sec) 
Heartbeat CPU  0 instructions:    6000000 cycles:    9978814 heartbeat IPC: 0.52482 cumulative IPC: 0.53900 (Simulation time: 0 hr 0 min 13 sec) 
Heartbeat CPU  0 instructions:    7000000 cycles:   11899659 heartbeat IPC: 0.52060 cumulative IPC: 0.53584 (Simulation time: 0 hr 0 min 15 sec) 
Heartbeat CPU  0 instructions:    8000000 cycles:   13711517 heartbeat IPC: 0.55192 cumulative IPC: 0.53808 (Simulation time: 0 hr 0 min 17 sec) 
Heartbeat CPU  0 instructions:    9000002 cycles:   15549842 heartbeat IPC: 0.54397 cumulative IPC: 0.53881 (Simulation time: 0 hr 0 min 19 sec) 
Heartbeat CPU  0 instructions:   10000003 cycles:   17472622 heartbeat IPC: 0.52008 cumulative IPC: 0.53666 (Simulation time: 0 hr 0 min 21 sec) 
Heartbeat CPU  0 instructions:   11000002 cycles:   19359733 heartbeat IPC: 0.52991 cumulative IPC: 0.53598 (Simulation time: 0 hr 0 min 23 sec) 
Finished CPU 0 instructions: 10000002 cycles: 18657370 cumulative IPC: 0.53598 (Simulation time: 0 hr 0 min 23 sec) 

ChampSim completed all CPUs

[ROI Statistics]
Core_0_instructions 10000002
Core_0_cycles 18657370
Core_0_IPC 0.53598

Core_0_branch_prediction_accuracy 99.17874
Core_0_branch_MPKI 0.00550
Core_0_average_ROB_occupancy_at_mispredict 254.83636

Core_0_L1D_total_access 5073910
Core_0_L1D_total_hit 5012141
Core_0_L1D_total_miss 61769
Core_0_L1D_loads 3497880
Core_0_L1D_load_hit 3441097
Core_0_L1D_load_miss 56783
Core_0_L1D_RFOs 1576030
Core_0_L1D_RFO_hit 1571044
Core_0_L1D_RFO_miss 4986
Core_0_L1D_prefetches 0
Core_0_L1D_prefetch_hit 0
Core_0_L1D_prefetch_miss 0
Core_0_L1D_writebacks 0
Core_0_L1D_writeback_hit 0
Core_0_L1D_writeback_miss 0
Core_0_L1D_prefetch_requested 0
Core_0_L1D_prefetch_dropped 0
Core_0_L1D_prefetch_issued 0
Core_0_L1D_prefetch_filled 0
Core_0_L1D_prefetch_useful 0
Core_0_L1D_prefetch_useless 0
Core_0_L1D_prefetch_late 0
Core_0_L1D_average_miss_latency 49.96935

Core_0_L1D_rq_access 5248913
Core_0_L1D_rq_forward 0
Core_0_L1D_rq_merged 1742274
Core_0_L1D_rq_to_cache 3498413
Core_0_L1D_rq_full 0

Core_0_L1D_wq_access 1601026
Core_0_L1D_wq_forward 8226
Core_0_L1D_wq_merged 24998
Core_0_L1D_wq_to_cache 1576028
Core_0_L1D_wq_full 0

Core_0_L1D_pq_access 0
Core_0_L1D_pq_forward 0
Core_0_L1D_pq_merged 0
Core_0_L1D_pq_to_cache 0
Core_0_L1D_pq_full 0

Core_0_L1D_acc_epochs 12358
Core_0_L1D_acc_level_0 12358
Core_0_L1D_acc_level_1 0
Core_0_L1D_acc_level_2 0
Core_0_L1D_acc_level_3 0
Core_0_L1D_acc_level_4 0
Core_0_L1D_acc_level_5 0
Core_0_L1D_acc_level_6 0
Core_0_L1D_acc_level_7 0
Core_0_L1D_acc_level_8 0
Core_0_L1D_acc_level_9 0

Core_0_L1I_total_access 2679365
Core_0_L1I_total_hit 2679365
Core_0_L1I_total_miss 0
Core_0_L1I_loads 2679365
Core_0_L1I_load_hit 2679365
Core_0_L1I_load_miss 0
Core_0_L1I_RFOs 0
Core_0_L1I_RFO_hit 0
Core_0_L1I_RFO_miss 0
Core_0_L1I_prefetches 0
Core_0_L1I_prefetch_hit 0
Core_0_L1I_prefetch_miss 0
Core_0_L1I_writebacks 0
Core_0_L1I_writeback_hit 0
Core_0_L1I_writeback_miss 0
Core_0_L1I_prefetch_requested 0
Core_0_L1I_prefetch_dropped 0
Core_0_L1I_prefetch_issued 0
Core_0_L1I_prefetch_filled 0
Core_0_L1I_prefetch_useful 0
Core_0_L1I_prefetch_useless 0
Core_0_L1I_prefetch_late 0
Core_0_L1I_average_miss_latency -nan

Core_0_L1I_rq_access 10000002
Core_0_L1I_rq_forward 0
Core_0_L1I_rq_merged 7320637
Core_0_L1I_rq_to_cache 2679365
Core_0_L1I_rq_full 0

Core_0_L1I_wq_access 0
Core_0_L1I_wq_forward 0
Core_0_L1I_wq_merged 0
Core_0_L1I_wq_to_cache 0
Core_0_L1I_wq_full 0

Core_0_L1I_pq_access 0
Core_0_L1I_pq_forward 0
Core_0_L1I_pq_merged 0
Core_0_L1I_pq_to_cache 0
Core_0_L1I_pq_full 0

Core_0_L1I_acc_epochs 12358
Core_0_L1I_acc_level_0 12358
Core_0_L1I_acc_level_1 0
Core_0_L1I_acc_level_2 0
Core_0_L1I_acc_level_3 0
Core_0_L1I_acc_level_4 0
Core_0_L1I_acc_level_5 0
Core_0_L1I_acc_level_6 0
Core_0_L1I_acc_level_7 0
Core_0_L1I_acc_level_8 0
Core_0_L1I_acc_level_9 0

Core_0_L2C_total_access 348132
Core_0_L2C_total_hit 315733
Core_0_L2C_total_miss 32399
Core_0_L2C_loads 56783
Core_0_L2C_load_hit 55672
Core_0_L2C_load_miss 1111
Core_0_L2C_RFOs 4986
Core_0_L2C_RFO_hit 0
Core_0_L2C_RFO_miss 4986
Core_0_L2C_prefetches 280770
Core_0_L2C_prefetch_hit 254468
Core_0_L2C_prefetch_miss 26302
Core_0_L2C_writebacks 5593
Core_0_L2C_writeback_hit 5593
Core_0_L2C_writeback_miss 0
Core_0_L2C_prefetch_requested 334273
Core_0_L2C_prefetch_dropped 24480
Core_0_L2C_prefetch_issued 309793
Core_0_L2C_prefetch_filled 29660
Core_0_L2C_prefetch_useful 29483
Core_0_L2C_prefetch_useless 15
Core_0_L2C_prefetch_late 3
Core_0_L2C_average_miss_latency 224.36270

Core_0_L2C_rq_access 61769
Core_0_L2C_rq_forward 0
Core_0_L2C_rq_merged 0
Core_0_L2C_rq_to_cache 61769
Core_0_L2C_rq_full 0

Core_0_L2C_wq_access 5593
Core_0_L2C_wq_forward 0
Core_0_L2C_wq_merged 0
Core_0_L2C_wq_to_cache 5593
Core_0_L2C_wq_full 0

Core_0_L2C_pq_access 309793
Core_0_L2C_pq_forward 0
Core_0_L2C_pq_merged 1353
Core_0_L2C_pq_to_cache 308440
Core_0_L2C_pq_full 0

Core_0_L2C_acc_epochs 12358
Core_0_L2C_acc_level_0 38
Core_0_L2C_acc_level_1 384
Core_0_L2C_acc_level_2 756
Core_0_L2C_acc_level_3 1331
Core_0_L2C_acc_level_4 1444
Core_0_L2C_acc_level_5 973
Core_0_L2C_acc_level_6 1500
Core_0_L2C_acc_level_7 1216
Core_0_L2C_acc_level_8 1167
Core_0_L2C_acc_level_9 3549

Core_0_LLC_total_access 37370
Core_0_LLC_total_hit 4971
Core_0_LLC_total_miss 32399
Core_0_LLC_loads 1111
Core_0_LLC_load_hit 0
Core_0_LLC_load_miss 1111
Core_0_LLC_RFOs 4986
Core_0_LLC_RFO_hit 0
Core_0_LLC_RFO_miss 4986
Core_0_LLC_prefetches 26302
Core_0_LLC_prefetch_hit 0
Core_0_LLC_prefetch_miss 26302
Core_0_LLC_writebacks 4971
Core_0_LLC_writeback_hit 4971
Core_0_LLC_writeback_miss 0
Core_0_LLC_prefetch_requested 0
Core_0_LLC_prefetch_dropped 0
Core_0_LLC_prefetch_issued 0
Core_0_LLC_prefetch_filled 29663
Core_0_LLC_prefetch_useful 0
Core_0_LLC_prefetch_useless 3189
Core_0_LLC_prefetch_late 0
Core_0_LLC_average_miss_latency 186.74663

Core_0_LLC_rq_access 6097
Core_0_LLC_rq_forward 0
Core_0_LLC_rq_merged 0
Core_0_LLC_rq_to_cache 6097
Core_0_LLC_rq_full 0

Core_0_LLC_wq_access 4971
Core_0_LLC_wq_forward 0
Core_0_LLC_wq_merged 0
Core_0_LLC_wq_to_cache 4971
Core_0_LLC_wq_full 0

Core_0_LLC_pq_access 29663
Core_0_LLC_pq_forward 0
Core_0_LLC_pq_merged 0
Core_0_LLC_pq_to_cache 29663
Core_0_LLC_pq_full 0

Core_0_LLC_acc_epochs 18906
Core_0_LLC_acc_level_0 18906
Core_0_LLC_acc_level_1 0
Core_0_LLC_acc_level_2 0
Core_0_LLC_acc_level_3 0
Core_0_LLC_acc_level_4 0
Core_0_LLC_acc_level_5 0
Core_0_LLC_acc_level_6 0
Core_0_LLC_acc_level_7 0
Core_0_LLC_acc_level_8 0
Core_0_LLC_acc_level_9 0

Core_0_major_page_fault 0
Core_0_minor_page_fault 614

scooby_st_lookup 62804
scooby_st_hit 62282
scooby_st_evict 458
scooby_st_insert 522
scooby_st_streaming 0

scooby_predict_called 62804
scooby_predict_out_of_bounds 1044
scooby_predict_action_1 61674
scooby_predict_issue_action_1 61656
scooby_predict_hit_action_1 18
scooby_predict_out_of_bounds_action_1 1025
scooby_predict_action_3 11
scooby_predict_issue_action_3 11
scooby_predict_hit_action_3 0
scooby_predict_out_of_bounds_action_3 0
scooby_predict_action_4 8
scooby_predict_issue_action_4 8
scooby_predict_hit_action_4 0
scooby_predict_out_of_bounds_action_4 1
scooby_predict_action_5 6
scooby_predict_issue_action_5 6
scooby_predict_hit_action_5 0
scooby_predict_out_of_bounds_action_5 0
scooby_predict_action_10 10
scooby_predict_issue_action_10 10
scooby_predict_hit_action_10 0
scooby_predict_out_of_bounds_action_10 3
scooby_predict_action_11 7
scooby_predict_issue_action_11 7
scooby_predict_hit_action_11 0
scooby_predict_out_of_bounds_action_11 1
scooby_predict_action_12 4
scooby_predict_issue_action_12 4
scooby_predict_hit_action_12 0
scooby_predict_out_of_bounds_action_12 2
scooby_predict_action_22 10
scooby_predict_issue_action_22 10
scooby_predict_hit_action_22 0
scooby_predict_out_of_bounds_action_22 0
scooby_predict_action_23 5
scooby_predict_issue_action_23 3
scooby_predict_hit_action_23 2
scooby_predict_out_of_bounds_action_23 3
scooby_predict_action_30 4
scooby_predict_issue_action_30 3
scooby_predict_hit_action_30 1
scooby_predict_out_of_bounds_action_30 6
scooby_predict_action_32 6
scooby_predict_issue_action_32 6
scooby_predict_hit_action_32 0
scooby_predict_out_of_bounds_action_32 3
scooby_predict_action_-1 5
scooby_predict_issue_action_-1 0
scooby_predict_hit_action_-1 5
scooby_predict_out_of_bounds_action_-1 0
scooby_predict_action_-3 3
scooby_predict_issue_action_-3 3
scooby_predict_hit_action_-3 0
scooby_predict_out_of_bounds_action_-3 0
scooby_predict_action_-6 3
scooby_predict_issue_action_-6 3
scooby_predict_hit_action_-6 0
scooby_predict_out_of_bounds_action_-6 0
scooby_predict_action_0 4
scooby_predict_issue_action_0 0
scooby_predict_hit_action_0 0
scooby_predict_out_of_bounds_action_0 0
scooby_predict_multi_deg_called 59439
scooby_predict_predicted 334273
scooby_predict_multi_deg 272543
scooby_predict_multi_deg_2 58414
scooby_predict_multi_deg_3 56364
scooby_predict_multi_deg_4 55328
scooby_predict_multi_deg_5 51704
scooby_predict_multi_deg_6 50733
scooby_predict_multi_deg_7 0
scooby_predict_multi_deg_8 0
scooby_predict_multi_deg_9 0
scooby_predict_multi_deg_10 0
scooby_predict_multi_deg_11 0
scooby_predict_multi_deg_12 0
scooby_predict_multi_deg_13 0
scooby_predict_multi_deg_14 0
scooby_predict_multi_deg_15 0
scooby_predict_multi_deg_16 0

scooby_selected_deg_1 2291
scooby_selected_deg_2 1034
scooby_selected_deg_3 0
scooby_selected_deg_4 2863
scooby_selected_deg_5 0
scooby_selected_deg_6 55542
scooby_selected_deg_7 0
scooby_selected_deg_8 0
scooby_selected_deg_9 0
scooby_selected_deg_10 0
scooby_selected_deg_11 0
scooby_selected_deg_12 0
scooby_selected_deg_13 0
scooby_selected_deg_14 0
scooby_selected_deg_15 0
scooby_selected_deg_16 0

scooby_state_4110b5|60|4 61,0,0,0,0,0,0,0,0,0,0,0,0,0,0,61,
scooby_state_40dd85|61|2 61,0,0,0,0,0,0,0,0,0,0,0,0,0,0,61,
scooby_state_40e352|62|2 61,0,0,0,0,0,0,0,0,0,0,0,0,0,0,61,
scooby_state_40db7a|59|2 61,0,0,0,0,0,0,0,0,0,0,0,0,0,0,61,
scooby_state_4110f5|0|0 61,0,0,0,0,0,0,0,0,0,0,0,0,0,0,61,
scooby_state_4110dd|58|-2 61,0,0,0,0,0,0,0,0,0,0,0,0,0,0,61,
scooby_state_40de4e|60|-1 61,0,0,0,0,0,0,0,0,0,0,0,0,0,0,61,
scooby_state_40db1e|57|-5 60,0,0,0,0,0,0,0,0,0,0,0,0,0,0,60,
scooby_state_4110ad|56|-7 60,0,0,0,0,0,0,0,0,0,0,0,0,0,0,60,
scooby_state_40dd25|63|26 58,0,0,0,0,0,0,0,0,0,0,0,0,0,0,58,
scooby_state_4110fd|39|8 54,0,0,0,0,0,0,0,0,0,0,0,0,0,0,54,
scooby_state_4111ae|54|-3 51,0,0,0,0,0,0,0,0,0,0,0,0,0,0,51,
scooby_state_41118e|57|-1 49,0,0,0,0,0,0,0,0,0,0,0,0,0,0,49,
scooby_state_41117e|38|-1 39,1,1,1,1,1,1,1,2,0,0,0,0,0,0,48,
scooby_state_411316|37|2 41,0,0,0,0,0,0,0,0,0,0,0,0,0,0,41,
scooby_state_4112ae|34|1 34,0,0,0,0,0,0,0,0,0,0,0,0,0,0,34,
scooby_state_411336|35|1 34,0,0,0,0,0,0,0,0,0,0,0,0,0,0,34,
scooby_state_4111fe|32|-22 29,0,0,0,0,0,0,0,0,0,0,0,0,0,0,29,
scooby_state_4110e5|31|-1 29,0,0,0,0,0,0,0,0,0,0,0,0,0,0,29,
scooby_state_411256|33|-5 28,0,0,0,0,0,0,0,0,0,0,0,0,0,0,28,
scooby_state_41131e|34|1 27,0,0,0,0,0,0,0,0,0,0,0,0,0,0,27,
scooby_state_411256|33|1 25,0,0,0,0,0,0,0,0,0,0,0,0,0,0,25,
scooby_state_411346|8|-26 25,0,0,0,0,0,0,0,0,0,0,0,0,0,0,25,
scooby_state_411336|35|27 25,0,0,0,0,0,0,0,0,0,0,0,0,0,0,25,
scooby_state_411346|8|-46 22,0,0,0,0,0,0,0,0,0,0,0,0,0,0,22,
scooby_state_4110e5|31|23 18,0,0,0,0,0,0,0,0,0,0,0,0,0,0,18,
scooby_state_4111fe|32|-6 16,0,0,0,0,0,0,0,0,0,0,0,0,0,0,16,
scooby_state_40e9fd|36|15 15,0,0,0,0,0,0,0,0,0,0,0,0,0,0,15,
scooby_state_40f146|39|-15 15,0,0,0,0,0,0,0,0,0,0,0,0,0,0,15,
scooby_state_40e944|19|16 15,0,0,0,0,0,0,0,0,0,0,0,0,0,0,15,
scooby_state_40e5e1|28|1 15,0,0,0,0,0,0,0,0,0,0,0,0,0,0,15,
scooby_state_40ef04|36|1 15,0,0,0,0,0,0,0,0,0,0,0,0,0,0,15,
scooby_state_40e61b|33|1 15,0,0,0,0,0,0,0,0,0,0,0,0,0,0,15,
scooby_state_410160|54|1 15,0,0,0,0,0,0,0,0,0,0,0,0,0,0,15,
scooby_state_40e6f4|62|1 15,0,0,0,0,0,0,0,0,0,0,0,0,0,0,15,
scooby_state_40ed3e|3|-14 15,0,0,0,0,0,0,0,0,0,0,0,0,0,0,15,
scooby_state_40f14a|47|-15 15,0,0,0,0,0,0,0,0,0,0,0,0,0,0,15,
scooby_state_40eeff|30|1 15,0,0,0,0,0,0,0,0,0,0,0,0,0,0,15,
scooby_state_40ebbc|4|1 15,0,0,0,0,0,0,0,0,0,0,0,0,0,0,15,
scooby_state_40ebc2|26|-30 15,0,0,0,0,0,0,0,0,0,0,0,0,0,0,15,
scooby_state_40e794|1|1 15,0,0,0,0,0,0,0,0,0,0,0,0,0,0,15,
scooby_state_40edf0|19|15 15,0,0,0,0,0,0,0,0,0,0,0,0,0,0,15,
scooby_state_40ef04|38|1 15,0,0,0,0,0,0,0,0,0,0,0,0,0,0,15,
scooby_state_40e7ab|0|0 15,0,0,0,0,0,0,0,0,0,0,0,0,0,0,15,
scooby_state_40e8f4|46|15 15,0,0,0,0,0,0,0,0,0,0,0,0,0,0,15,
scooby_state_40e6f4|61|1 15,0,0,0,0,0,0,0,0,0,0,0,0,0,0,15,
scooby_state_40f12a|1|1 15,0,0,0,0,0,0,0,0,0,0,0,0,0,0,15,
scooby_state_40e8fa|17|-30 15,0,0,0,0,0,0,0,0,0,0,0,0,0,0,15,
scooby_state_40edfe|16|15 15,0,0,0,0,0,0,0,0,0,0,0,0,0,0,15,
scooby_state_40e76c|63|1 15,0,0,0,0,0,0,0,0,0,0,0,0,0,0,15,
scooby_state_40ea15|10|-30 15,0,0,0,0,0,0,0,0,0,0,0,0,0,0,15,
scooby_state_40e74d|4|1 15,0,0,0,0,0,0,0,0,0,0,0,0,0,0,15,
scooby_state_40ea11|2|-30 15,0,0,0,0,0,0,0,0,0,0,0,0,0,0,15,
scooby_state_41042d|61|16 15,0,0,0,0,0,0,0,0,0,0,0,0,0,0,15,
scooby_state_40f146|25|-30 15,0,0,0,0,0,0,0,0,0,0,0,0,0,0,15,
scooby_state_40e944|21|16 15,0,0,0,0,0,0,0,0,0,0,0,0,0,0,15,
scooby_state_40e94a|31|16 15,0,0,0,0,0,0,0,0,0,0,0,0,0,0,15,
scooby_state_40e9fd|24|15 15,0,0,0,0,0,0,0,0,0,0,0,0,0,0,15,
scooby_state_40ea0b|44|15 15,0,0,0,0,0,0,0,0,0,0,0,0,0,0,15,
scooby_state_40f12a|56|15 15,0,0,0,0,0,0,0,0,0,0,0,0,0,0,15,
scooby_state_40ebae|50|15 15,0,0,0,0,0,0,0,0,0,0,0,0,0,0,15,
scooby_state_40ef04|37|1 15,0,0,0,0,0,0,0,0,0,0,0,0,0,0,15,
scooby_state_40eb60|53|16 15,0,0,0,0,0,0,0,0,0,0,0,0,0,0,15,
scooby_state_40ed3e|55|16 15,0,0,0,0,0,0,0,0,0,0,0,0,0,0,15,
scooby_state_40e61b|24|1 15,0,0,0,0,0,0,0,0,0,0,0,0,0,0,15,
scooby_state_40f146|28|-30 15,0,0,0,0,0,0,0,0,0,0,0,0,0,0,15,
scooby_state_40ea8a|62|16 15,0,0,0,0,0,0,0,0,0,0,0,0,0,0,15,
scooby_state_40eb55|46|16 15,0,0,0,0,0,0,0,0,0,0,0,0,0,0,15,
scooby_state_410150|18|15 15,0,0,0,0,0,0,0,0,0,0,0,0,0,0,15,
scooby_state_40e65c|38|1 14,0,0,0,0,0,0,0,0,0,0,0,0,0,1,15,
scooby_state_40e944|6|-14 15,0,0,0,0,0,0,0,0,0,0,0,0,0,0,15,
scooby_state_40ee10|63|1 15,0,0,0,0,0,0,0,0,0,0,0,0,0,0,15,
scooby_state_40e67b|44|1 15,0,0,0,0,0,0,0,0,0,0,0,0,0,0,15,
scooby_state_40eb60|54|16 15,0,0,0,0,0,0,0,0,0,0,0,0,0,0,15,
scooby_state_40ea0b|33|15 15,0,0,0,0,0,0,0,0,0,0,0,0,0,0,15,
scooby_state_40ebae|61|15 15,0,0,0,0,0,0,0,0,0,0,0,0,0,0,15,
scooby_state_40e61b|35|1 15,0,0,0,0,0,0,0,0,0,0,0,0,0,0,15,
scooby_state_40ebbc|5|1 14,0,0,0,0,0,0,1,0,0,0,0,0,0,0,15,
scooby_state_40e67b|30|1 15,0,0,0,0,0,0,0,0,0,0,0,0,0,0,15,
scooby_state_40ed43|14|-14 15,0,0,0,0,0,0,0,0,0,0,0,0,0,0,15,
scooby_state_40e65c|50|1 15,0,0,0,0,0,0,0,0,0,0,0,0,0,0,15,
scooby_state_410457|5|-14 15,0,0,0,0,0,0,0,0,0,0,0,0,0,0,15,
scooby_state_40f146|35|-15 14,0,0,0,0,0,0,0,0,0,0,0,0,0,1,15,
scooby_state_40f4a5|18|1 15,0,0,0,0,0,0,0,0,0,0,0,0,0,0,15,
scooby_state_410afa|20|15 15,0,0,0,0,0,0,0,0,0,0,0,0,0,0,15,
scooby_state_410b15|54|1 15,0,0,0,0,0,0,0,0,0,0,0,0,0,0,15,
scooby_state_40ec9d|37|15 15,0,0,0,0,0,0,0,0,0,0,0,0,0,0,15,
scooby_state_40ee10|50|1 15,0,0,0,0,0,0,0,0,0,0,0,0,0,0,15,
scooby_state_40ebc6|39|-15 15,0,0,0,0,0,0,0,0,0,0,0,0,0,0,15,
scooby_state_40edfe|29|15 15,0,0,0,0,0,0,0,0,0,0,0,0,0,0,15,
scooby_state_40ee10|51|1 15,0,0,0,0,0,0,0,0,0,0,0,0,0,0,15,
scooby_state_40fa3f|9|-14 15,0,0,0,0,0,0,0,0,0,0,0,0,0,0,15,
scooby_state_40ee0c|55|1 15,0,0,0,0,0,0,0,0,0,0,0,0,0,0,15,
scooby_state_40edfe|14|1 15,0,0,0,0,0,0,0,0,0,0,0,0,0,0,15,
scooby_state_40e5e1|44|1 15,0,0,0,0,0,0,0,0,0,0,0,0,0,0,15,
scooby_state_40e7ab|1|1 15,0,0,0,0,0,0,0,0,0,0,0,0,0,0,15,
scooby_state_40ebbc|3|1 15,0,0,0,0,0,0,0,0,0,0,0,0,0,0,15,
scooby_state_40edfe|27|15 15,0,0,0,0,0,0,0,0,0,0,0,0,0,0,15,
scooby_state_40ee10|47|-15 15,0,0,0,0,0,0,0,0,0,0,0,0,0,0,15,
scooby_state_40ee0c|53|1 15,0,0,0,0,0,0,0,0,0,0,0,0,0,0,15,
scooby_state_40ec60|8|-14 15,0,0,0,0,0,0,0,0,0,0,0,0,0,0,15,
scooby_state_40f14a|32|-30 15,0,0,0,0,0,0,0,0,0,0,0,0,0,0,15,
scooby_state_40f14a|39|-15 15,0,0,0,0,0,0,0,0,0,0,0,0,0,0,15,
scooby_state_40ecc6|63|1 15,0,0,0,0,0,0,0,0,0,0,0,0,0,0,15,
scooby_state_40eb0e|45|-15 15,0,0,0,0,0,0,0,0,0,0,0,0,0,0,15,
scooby_state_40ea11|63|1 15,0,0,0,0,0,0,0,0,0,0,0,0,0,0,15,
scooby_state_40fa3f|13|-14 15,0,0,0,0,0,0,0,0,0,0,0,0,0,0,15,
scooby_state_40f48d|13|1 15,0,0,0,0,0,0,0,0,0,0,0,0,0,0,15,
scooby_state_40ef04|27|1 15,0,0,0,0,0,0,0,0,0,0,0,0,0,0,15,
scooby_state_40fa3f|5|-14 15,0,0,0,0,0,0,0,0,0,0,0,0,0,0,15,
scooby_state_40edfe|30|15 15,0,0,0,0,0,0,0,0,0,0,0,0,0,0,15,
scooby_state_410150|28|15 15,0,0,0,0,0,0,0,0,0,0,0,0,0,0,15,
scooby_state_410457|6|-14 15,0,0,0,0,0,0,0,0,0,0,0,0,0,0,15,
scooby_state_40e61b|38|1 15,0,0,0,0,0,0,0,0,0,0,0,0,0,0,15,
scooby_state_40ea11|60|1 15,0,0,0,0,0,0,0,0,0,0,0,0,0,0,15,
scooby_state_40e65c|48|1 15,0,0,0,0,0,0,0,0,0,0,0,0,0,0,15,
scooby_state_40e7ab|58|1 15,0,0,0,0,0,0,0,0,0,0,0,0,0,0,15,
scooby_state_40ee3c|35|16 15,0,0,0,0,0,0,0,0,0,0,0,0,0,0,15,
scooby_state_40ea0b|42|15 15,0,0,0,0,0,0,0,0,0,0,0,0,0,0,15,
scooby_state_40ea11|4|-30 15,0,0,0,0,0,0,0,0,0,0,0,0,0,0,15,
scooby_state_410150|13|1 15,0,0,0,0,0,0,0,0,0,0,0,0,0,0,15,
scooby_state_40f12a|3|1 15,0,0,0,0,0,0,0,0,0,0,0,0,0,0,15,
scooby_state_40e61b|27|1 15,0,0,0,0,0,0,0,0,0,0,0,0,0,0,15,
scooby_state_40f14a|45|-15 15,0,0,0,0,0,0,0,0,0,0,0,0,0,0,15,
scooby_state_40ec60|21|16 15,0,0,0,0,0,0,0,0,0,0,0,0,0,0,15,
scooby_state_40fa3f|11|-14 15,0,0,0,0,0,0,0,0,0,0,0,0,0,0,15,
scooby_state_40ebc2|29|-30 15,0,0,0,0,0,0,0,0,0,0,0,0,0,0,15,
scooby_state_410160|55|1 15,0,0,0,0,0,0,0,0,0,0,0,0,0,0,15,
scooby_state_410150|26|15 15,0,0,0,0,0,0,0,0,0,0,0,0,0,0,15,
scooby_state_40eb08|12|1 15,0,0,0,0,0,0,0,0,0,0,0,0,0,0,15,
scooby_state_410aec|10|1 15,0,0,0,0,0,0,0,0,0,0,0,0,0,0,15,
scooby_state_40ec60|20|16 15,0,0,0,0,0,0,0,0,0,0,0,0,0,0,15,
scooby_state_40ecc6|5|-30 15,0,0,0,0,0,0,0,0,0,0,0,0,0,0,15,
scooby_state_40ebbc|63|15 14,0,1,0,0,0,0,0,0,0,0,0,0,0,0,15,
scooby_state_40ed3e|4|-14 15,0,0,0,0,0,0,0,0,0,0,0,0,0,0,15,
scooby_state_40e6a3|47|1 15,0,0,0,0,0,0,0,0,0,0,0,0,0,0,15,
scooby_state_40e8f4|51|15 15,0,0,0,0,0,0,0,0,0,0,0,0,0,0,15,
scooby_state_40ea8a|53|16 15,0,0,0,0,0,0,0,0,0,0,0,0,0,0,15,
scooby_state_40ee0c|43|-15 15,0,0,0,0,0,0,0,0,0,0,0,0,0,0,15,
scooby_state_40ecc6|6|-30 15,0,0,0,0,0,0,0,0,0,0,0,0,0,0,15,
scooby_state_410afa|10|1 15,0,0,0,0,0,0,0,0,0,0,0,0,0,0,15,
scooby_state_40ed43|13|-14 15,0,0,0,0,0,0,0,0,0,0,0,0,0,0,15,
scooby_state_40eb08|6|1 15,0,0,0,0,0,0,0,0,0,0,0,0,0,0,15,
scooby_state_40edf0|20|15 15,0,0,0,0,0,0,0,0,0,0,0,0,0,0,15,
scooby_state_40eb55|45|16 15,0,0,0,0,0,0,0,0,0,0,0,0,0,0,15,
scooby_state_40eb0e|46|-15 15,0,0,0,0,0,0,0,0,0,0,0,0,0,0,15,
scooby_state_40e65c|49|1 15,0,0,0,0,0,0,0,0,0,0,0,0,0,0,15,
scooby_state_40e67b|35|1 15,0,0,0,0,0,0,0,0,0,0,0,0,0,0,15,
scooby_state_410160|58|1 15,0,0,0,0,0,0,0,0,0,0,0,0,0,0,15,
scooby_state_410457|56|16 15,0,0,0,0,0,0,0,0,0,0,0,0,0,0,15,
scooby_state_40f439|31|-30 15,0,0,0,0,0,0,0,0,0,0,0,0,0,0,15,
scooby_state_40f48d|10|1 15,0,0,0,0,0,0,0,0,0,0,0,0,0,0,15,
scooby_state_40ee3c|42|16 15,0,0,0,0,0,0,0,0,0,0,0,0,0,0,15,
scooby_state_40e5e1|43|1 15,0,0,0,0,0,0,0,0,0,0,0,0,0,0,15,
scooby_state_40e61b|39|1 15,0,0,0,0,0,0,0,0,0,0,0,0,0,0,15,
scooby_state_40f439|21|-30 15,0,0,0,0,0,0,0,0,0,0,0,0,0,0,15,
scooby_state_410457|1|-14 15,0,0,0,0,0,0,0,0,0,0,0,0,0,0,15,
scooby_state_40e76c|62|1 15,0,0,0,0,0,0,0,0,0,0,0,0,0,0,15,
scooby_state_40e8fa|18|-30 15,0,0,0,0,0,0,0,0,0,0,0,0,0,0,15,
scooby_state_40ea15|14|-30 15,0,0,0,0,0,0,0,0,0,0,0,0,0,0,15,
scooby_state_40ea0b|43|15 15,0,0,0,0,0,0,0,0,0,0,0,0,0,0,15,
scooby_state_40ea11|5|-30 15,0,0,0,0,0,0,0,0,0,0,0,0,0,0,15,
scooby_state_40f12a|4|1 15,0,0,0,0,0,0,0,0,0,0,0,0,0,0,15,
scooby_state_40e6a3|40|1 15,0,0,0,0,0,0,0,0,0,0,0,0,0,0,15,
scooby_state_40e8fa|11|-30 15,0,0,0,0,0,0,0,0,0,0,0,0,0,0,15,
scooby_state_410150|27|15 15,0,0,0,0,0,0,0,0,0,0,0,0,0,0,15,
scooby_state_40eb08|10|1 15,0,0,0,0,0,0,0,0,0,0,0,0,0,0,15,
scooby_state_40e8f4|43|15 15,0,0,0,0,0,0,0,0,0,0,0,0,0,0,15,
scooby_state_40ee0c|56|1 15,0,0,0,0,0,0,0,0,0,0,0,0,0,0,15,
scooby_state_410150|24|15 15,0,0,0,0,0,0,0,0,0,0,0,0,0,0,15,
scooby_state_40f439|30|-30 15,0,0,0,0,0,0,0,0,0,0,0,0,0,0,15,
scooby_state_40edfe|18|15 15,0,0,0,0,0,0,0,0,0,0,0,0,0,0,15,
scooby_state_40ebbc|58|15 15,0,0,0,0,0,0,0,0,0,0,0,0,0,0,15,
scooby_state_40eb08|4|1 15,0,0,0,0,0,0,0,0,0,0,0,0,0,0,15,
scooby_state_410afa|19|15 15,0,0,0,0,0,0,0,0,0,0,0,0,0,0,15,
scooby_state_40f4a5|17|1 15,0,0,0,0,0,0,0,0,0,0,0,0,0,0,15,
scooby_state_40f146|34|-15 15,0,0,0,0,0,0,0,0,0,0,0,0,0,0,15,
scooby_state_40ec9d|38|15 15,0,0,0,0,0,0,0,0,0,0,0,0,0,0,15,
scooby_state_40f12a|5|1 15,0,0,0,0,0,0,0,0,0,0,0,0,0,0,15,
scooby_state_40e74d|55|1 15,0,0,0,0,0,0,0,0,0,0,0,0,0,0,15,
scooby_state_40edf0|8|1 14,0,0,0,0,0,0,0,0,0,1,0,0,0,0,15,
scooby_state_40ee3c|39|16 15,0,0,0,0,0,0,0,0,0,0,0,0,0,0,15,
scooby_state_40e6a3|50|1 15,0,0,0,0,0,0,0,0,0,0,0,0,0,0,15,
scooby_state_40e9fd|30|15 15,0,0,0,0,0,0,0,0,0,0,0,0,0,0,15,
scooby_state_40ea15|16|-30 15,0,0,0,0,0,0,0,0,0,0,0,0,0,0,15,
scooby_state_40e6f4|56|1 15,0,0,0,0,0,0,0,0,0,0,0,0,0,0,15,
scooby_state_40ea8a|61|16 15,0,0,0,0,0,0,0,0,0,0,0,0,0,0,15,
scooby_state_40ecc6|51|1 15,0,0,0,0,0,0,0,0,0,0,0,0,0,0,15,
scooby_state_41042d|49|16 15,0,0,0,0,0,0,0,0,0,0,0,0,0,0,15,
scooby_state_40eb0e|41|-15 15,0,0,0,0,0,0,0,0,0,0,0,0,0,0,15,
scooby_state_40e76c|59|1 15,0,0,0,0,0,0,0,0,0,0,0,0,0,0,15,
scooby_state_40eeff|20|1 15,0,0,0,0,0,0,0,0,0,0,0,0,0,0,15,
scooby_state_40edf0|15|15 15,0,0,0,0,0,0,0,0,0,0,0,0,0,0,15,
scooby_state_40f146|37|-15 15,0,0,0,0,0,0,0,0,0,0,0,0,0,0,15,
scooby_state_40ee3c|45|16 15,0,0,0,0,0,0,0,0,0,0,0,0,0,0,15,
scooby_state_40f146|33|-30 15,0,0,0,0,0,0,0,0,0,0,0,0,0,0,15,
scooby_state_41134e|37|2 15,0,0,0,0,0,0,0,0,0,0,0,0,0,0,15,
scooby_state_40e9fd|25|15 15,0,0,0,0,0,0,0,0,0,0,0,0,0,0,15,
scooby_state_40e725|49|1 15,0,0,0,0,0,0,0,0,0,0,0,0,0,0,15,
scooby_state_40f14a|38|-15 15,0,0,0,0,0,0,0,0,0,0,0,0,0,0,15,
scooby_state_40ea15|1|-30 15,0,0,0,0,0,0,0,0,0,0,0,0,0,0,15,
scooby_state_40e9fd|31|15 15,0,0,0,0,0,0,0,0,0,0,0,0,0,0,15,
scooby_state_40ed3e|5|-14 15,0,0,0,0,0,0,0,0,0,0,0,0,0,0,15,
scooby_state_40ee3c|48|16 15,0,0,0,0,0,0,0,0,0,0,0,0,0,0,15,
scooby_state_40f138|4|1 15,0,0,0,0,0,0,0,0,0,0,0,0,0,0,15,
scooby_state_410b15|46|-15 15,0,0,0,0,0,0,0,0,0,0,0,0,0,0,15,
scooby_state_40f439|16|-30 15,0,0,0,0,0,0,0,0,0,0,0,0,0,0,15,
scooby_state_40e65c|41|1 15,0,0,0,0,0,0,0,0,0,0,0,0,0,0,15,
scooby_state_40e67b|46|1 15,0,0,0,0,0,0,0,0,0,0,0,0,0,0,15,
scooby_state_40eb60|40|16 15,0,0,0,0,0,0,0,0,0,0,0,0,0,0,15,
scooby_state_40e6ba|45|1 15,0,0,0,0,0,0,0,0,0,0,0,0,0,0,15,
scooby_state_40ea0b|46|15 15,0,0,0,0,0,0,0,0,0,0,0,0,0,0,15,
scooby_state_40ef04|24|1 15,0,0,0,0,0,0,0,0,0,0,0,0,0,0,15,
scooby_state_40e6ba|42|1 15,0,0,0,0,0,0,0,0,0,0,0,0,0,0,15,
scooby_state_40ea0b|36|15 15,0,0,0,0,0,0,0,0,0,0,0,0,0,0,15,
scooby_state_40ef04|39|1 15,0,0,0,0,0,0,0,0,0,0,0,0,0,0,15,
scooby_state_410150|14|1 14,1,0,0,0,0,0,0,0,0,0,0,0,0,0,15,
scooby_state_410aec|4|1 15,0,0,0,0,0,0,0,0,0,0,0,0,0,0,15,
scooby_state_40ebae|56|15 15,0,0,0,0,0,0,0,0,0,0,0,0,0,0,15,
scooby_state_40eb55|33|16 15,0,0,0,0,0,0,0,0,0,0,0,0,0,0,15,
scooby_state_40ebc6|32|-30 15,0,0,0,0,0,0,0,0,0,0,0,0,0,0,15,
scooby_state_40e8fa|8|-30 15,0,0,0,0,0,0,0,0,0,0,0,0,0,0,15,
scooby_state_40f138|7|1 15,0,0,0,0,0,0,0,0,0,0,0,0,0,0,15,
scooby_state_40e6ba|36|1 15,0,0,0,0,0,0,0,0,0,0,0,0,0,0,15,
scooby_state_40ee10|56|1 15,0,0,0,0,0,0,0,0,0,0,0,0,0,0,15,
scooby_state_40e794|8|1 15,0,0,0,0,0,0,0,0,0,0,0,0,0,0,15,
scooby_state_40e76c|56|1 15,0,0,0,0,0,0,0,0,0,0,0,0,0,0,15,
scooby_state_40fa3f|12|-14 15,0,0,0,0,0,0,0,0,0,0,0,0,0,0,15,
scooby_state_40ea15|7|-30 15,0,0,0,0,0,0,0,0,0,0,0,0,0,0,15,
scooby_state_40e8fa|16|-30 15,0,0,0,0,0,0,0,0,0,0,0,0,0,0,15,
scooby_state_40e94a|25|16 15,0,0,0,0,0,0,0,0,0,0,0,0,0,0,15,
scooby_state_40fa3f|3|-14 15,0,0,0,0,0,0,0,0,0,0,0,0,0,0,15,
scooby_state_40e725|51|1 15,0,0,0,0,0,0,0,0,0,0,0,0,0,0,15,
scooby_state_40eb08|11|1 15,0,0,0,0,0,0,0,0,0,0,0,0,0,0,15,
scooby_state_40ed3e|0|-14 15,0,0,0,0,0,0,0,0,0,0,0,0,0,0,15,
scooby_state_40ecc6|1|-30 15,0,0,0,0,0,0,0,0,0,0,0,0,0,0,15,
scooby_state_40ea8a|50|16 15,0,0,0,0,0,0,0,0,0,0,0,0,0,0,15,
scooby_state_40edf0|22|15 15,0,0,0,0,0,0,0,0,0,0,0,0,0,0,15,
scooby_state_40ec9d|31|15 15,0,0,0,0,0,0,0,0,0,0,0,0,0,0,15,
scooby_state_40ea0b|45|15 15,0,0,0,0,0,0,0,0,0,0,0,0,0,0,15,
scooby_state_410160|57|1 15,0,0,0,0,0,0,0,0,0,0,0,0,0,0,15,
scooby_state_40eb60|52|16 15,0,0,0,0,0,0,0,0,0,0,0,0,0,0,15,
scooby_state_410b15|48|-15 15,0,0,0,0,0,0,0,0,0,0,0,0,0,0,15,
scooby_state_40ea0b|39|15 15,0,0,0,0,0,0,0,0,0,0,0,0,0,0,15,
scooby_state_40eb55|36|16 15,0,0,0,0,0,0,0,0,0,0,0,0,0,0,15,
scooby_state_40e65c|34|1 15,0,0,0,0,0,0,0,0,0,0,0,0,0,0,15,
scooby_state_40f48d|5|1 15,0,0,0,0,0,0,0,0,0,0,0,0,0,0,15,
scooby_state_410b11|35|-15 15,0,0,0,0,0,0,0,0,0,0,0,0,0,0,15,
scooby_state_41042d|55|16 15,0,0,0,0,0,0,0,0,0,0,0,0,0,0,15,
scooby_state_40e9fd|23|15 15,0,0,0,0,0,0,0,0,0,0,0,0,0,0,15,
scooby_state_40e725|53|1 15,0,0,0,0,0,0,0,0,0,0,0,0,0,0,15,
scooby_state_40fa3f|7|-14 15,0,0,0,0,0,0,0,0,0,0,0,0,0,0,15,
scooby_state_41042d|60|16 15,0,0,0,0,0,0,0,0,0,0,0,0,0,0,15,
scooby_state_40e6ba|53|1 14,0,0,0,0,0,1,0,0,0,0,0,0,0,0,15,
scooby_state_410b15|55|1 15,0,0,0,0,0,0,0,0,0,0,0,0,0,0,15,
scooby_state_40e8f4|38|15 15,0,0,0,0,0,0,0,0,0,0,0,0,0,0,15,
scooby_state_40e6ba|46|1 15,0,0,0,0,0,0,0,0,0,0,0,0,0,0,15,
scooby_state_40ed3e|7|-14 15,0,0,0,0,0,0,0,0,0,0,0,0,0,0,15,
scooby_state_40edfe|24|15 15,0,0,0,0,0,0,0,0,0,0,0,0,0,0,15,
scooby_state_410150|19|15 15,0,0,0,0,0,0,0,0,0,0,0,0,0,0,15,
scooby_state_40ebc6|24|-30 15,0,0,0,0,0,0,0,0,0,0,0,0,0,0,15,
scooby_state_40eb0e|48|-15 15,0,0,0,0,0,0,0,0,0,0,0,0,0,0,15,
scooby_state_40ea11|57|1 15,0,0,0,0,0,0,0,0,0,0,0,0,0,0,15,
scooby_state_40ebc2|32|-30 15,0,0,0,0,0,0,0,0,0,0,0,0,0,0,15,
scooby_state_40ebbc|59|15 15,0,0,0,0,0,0,0,0,0,0,0,0,0,0,15,
scooby_state_40ebc6|40|-15 15,0,0,0,0,0,0,0,0,0,0,0,0,0,0,15,
scooby_state_40ee10|58|1 15,0,0,0,0,0,0,0,0,0,0,0,0,0,0,15,
scooby_state_40ecc6|2|-30 15,0,0,0,0,0,0,0,0,0,0,0,0,0,0,15,
scooby_state_40e67b|47|1 15,0,0,0,0,0,0,0,0,0,0,0,0,0,0,15,
scooby_state_40e6a3|57|1 15,0,0,0,0,0,0,0,0,0,0,0,0,0,0,15,
scooby_state_40eb55|47|16 15,0,0,0,0,0,0,0,0,0,0,0,0,0,0,15,
scooby_state_40ea8a|63|16 15,0,0,0,0,0,0,0,0,0,0,0,0,0,0,15,
scooby_state_40e8fa|23|-30 15,0,0,0,0,0,0,0,0,0,0,0,0,0,0,15,
scooby_state_40eeff|23|1 15,0,0,0,0,0,0,0,0,0,0,0,0,0,0,15,
scooby_state_40eb0e|42|-15 15,0,0,0,0,0,0,0,0,0,0,0,0,0,0,15,
scooby_state_40e7ab|60|1 15,0,0,0,0,0,0,0,0,0,0,0,0,0,0,15,
scooby_state_40e65c|40|1 15,0,0,0,0,0,0,0,0,0,0,0,0,0,0,15,
scooby_state_40e9fd|22|15 15,0,0,0,0,0,0,0,0,0,0,0,0,0,0,15,
scooby_state_40eb55|31|16 15,0,0,0,0,0,0,0,0,0,0,0,0,0,0,15,
scooby_state_40ea15|15|-30 15,0,0,0,0,0,0,0,0,0,0,0,0,0,0,15,
scooby_state_40e794|63|1 15,0,0,0,0,0,0,0,0,0,0,0,0,0,0,15,
scooby_state_40e6f4|63|1 15,0,0,0,0,0,0,0,0,0,0,0,0,0,0,15,
scooby_state_40eb55|43|16 15,0,0,0,0,0,0,0,0,0,0,0,0,0,0,15,
scooby_state_40f14a|48|-15 15,0,0,0,0,0,0,0,0,0,0,0,0,0,0,15,
scooby_state_410afa|14|1 15,0,0,0,0,0,0,0,0,0,0,0,0,0,0,15,
scooby_state_40f4a5|12|1 15,0,0,0,0,0,0,0,0,0,0,0,0,0,0,15,
scooby_state_40e67b|45|1 15,0,0,0,0,0,0,0,0,0,0,0,0,0,0,15,
scooby_state_41042d|62|16 15,0,0,0,0,0,0,0,0,0,0,0,0,0,0,15,
scooby_state_40f48d|12|1 15,0,0,0,0,0,0,0,0,0,0,0,0,0,0,15,
scooby_state_410afa|21|15 15,0,0,0,0,0,0,0,0,0,0,0,0,0,0,15,
scooby_state_40edf0|16|15 15,0,0,0,0,0,0,0,0,0,0,0,0,0,0,15,
scooby_state_40f138|15|15 15,0,0,0,0,0,0,0,0,0,0,0,0,0,0,15,
scooby_state_410afa|18|15 15,0,0,0,0,0,0,0,0,0,0,0,0,0,0,15,
scooby_state_40f146|41|-15 15,0,0,0,0,0,0,0,0,0,0,0,0,0,0,15,
scooby_state_40fa3f|15|-14 15,0,0,0,0,0,0,0,0,0,0,0,0,0,0,15,
scooby_state_40ea15|11|-30 15,0,0,0,0,0,0,0,0,0,0,0,0,0,0,15,
scooby_state_40e7ab|5|1 15,0,0,0,0,0,0,0,0,0,0,0,0,0,0,15,
scooby_state_41042d|63|16 15,0,0,0,0,0,0,0,0,0,0,0,0,0,0,15,
scooby_state_40edfe|26|15 15,0,0,0,0,0,0,0,0,0,0,0,0,0,0,15,
scooby_state_40f138|14|1 15,0,0,0,0,0,0,0,0,0,0,0,0,0,0,15,
scooby_state_40f12a|7|1 15,0,0,0,0,0,0,0,0,0,0,0,0,0,0,15,
scooby_state_40f48d|8|1 15,0,0,0,0,0,0,0,0,0,0,0,0,0,0,15,
scooby_state_40e61b|41|1 15,0,0,0,0,0,0,0,0,0,0,0,0,0,0,15,
scooby_state_40f146|30|-30 14,0,0,0,0,0,0,0,0,0,0,0,0,1,0,15,
scooby_state_40ef04|30|1 15,0,0,0,0,0,0,0,0,0,0,0,0,0,0,15,
scooby_state_410457|0|-14 15,0,0,0,0,0,0,0,0,0,0,0,0,0,0,15,
scooby_state_410150|23|15 15,0,0,0,0,0,0,0,0,0,0,0,0,0,0,15,
scooby_state_40ebbc|60|15 15,0,0,0,0,0,0,0,0,0,0,0,0,0,0,15,
scooby_state_40eb55|38|16 15,0,0,0,0,0,0,0,0,0,0,0,0,0,0,15,
scooby_state_40ec60|17|16 15,0,0,0,0,0,0,0,0,0,0,0,0,0,0,15,
scooby_state_40e74d|5|1 15,0,0,0,0,0,0,0,0,0,0,0,0,0,0,15,
scooby_state_40e76c|1|1 15,0,0,0,0,0,0,0,0,0,0,0,0,0,0,15,
scooby_state_40ec60|23|16 15,0,0,0,0,0,0,0,0,0,0,0,0,0,0,15,
scooby_state_40e8f4|52|15 15,0,0,0,0,0,0,0,0,0,0,0,0,0,0,15,
scooby_state_40f138|13|1 15,0,0,0,0,0,0,0,0,0,0,0,0,0,0,15,
scooby_state_40e6ba|49|1 15,0,0,0,0,0,0,0,0,0,0,0,0,0,0,15,
scooby_state_40f4a5|8|1 15,0,0,0,0,0,0,0,0,0,0,0,0,0,0,15,
scooby_state_40e794|11|1 15,0,0,0,0,0,0,0,0,0,0,0,0,0,0,15,
scooby_state_40e6ba|39|1 15,0,0,0,0,0,0,0,0,0,0,0,0,0,0,15,
scooby_state_40e8f4|53|15 15,0,0,0,0,0,0,0,0,0,0,0,0,0,0,15,
scooby_state_40e8fa|24|-30 15,0,0,0,0,0,0,0,0,0,0,0,0,0,0,15,
scooby_state_40ea15|3|-30 15,0,0,0,0,0,0,0,0,0,0,0,0,0,0,15,
scooby_state_40ee0c|42|-15 15,0,0,0,0,0,0,0,0,0,0,0,0,0,0,15,
scooby_state_40e61b|40|1 15,0,0,0,0,0,0,0,0,0,0,0,0,0,0,15,
scooby_state_40e76c|48|1 15,0,0,0,0,0,0,0,0,0,0,0,0,0,0,15,
scooby_state_410457|63|16 15,0,0,0,0,0,0,0,0,0,0,0,0,0,0,15,
scooby_state_40ea11|8|-30 15,0,0,0,0,0,0,0,0,0,0,0,0,0,0,15,
scooby_state_40f439|26|-30 15,0,0,0,0,0,0,0,0,0,0,0,0,0,0,15,
scooby_state_40e725|48|1 14,0,0,0,0,1,0,0,0,0,0,0,0,0,0,15,
scooby_state_40ee10|54|1 15,0,0,0,0,0,0,0,0,0,0,0,0,0,0,15,
scooby_state_40e794|2|1 15,0,0,0,0,0,0,0,0,0,0,0,0,0,0,15,
scooby_state_40eb08|13|1 15,0,0,0,0,0,0,0,0,0,0,0,0,0,0,15,
scooby_state_40e944|14|-14 15,0,0,0,0,0,0,0,0,0,0,0,0,0,0,15,
scooby_state_410afa|5|1 15,0,0,0,0,0,0,0,0,0,0,0,0,0,0,15,
scooby_state_40f40b|60|15 15,0,0,0,0,0,0,0,0,0,0,0,0,0,0,15,
scooby_state_40ecc6|57|1 15,0,0,0,0,0,0,0,0,0,0,0,0,0,0,15,
scooby_state_410b15|53|1 15,0,0,0,0,0,0,0,0,0,0,0,0,0,0,15,
scooby_state_40fa3f|0|-14 15,0,0,0,0,0,0,0,0,0,0,0,0,0,0,15,
scooby_state_40ea0b|34|15 15,0,0,0,0,0,0,0,0,0,0,0,0,0,0,15,
scooby_state_40f146|38|-15 15,0,0,0,0,0,0,0,0,0,0,0,0,0,0,15,
scooby_state_410150|15|15 15,0,0,0,0,0,0,0,0,0,0,0,0,0,0,15,
scooby_state_40edfe|17|15 15,0,0,0,0,0,0,0,0,0,0,0,0,0,0,15,
scooby_state_41042d|48|16 15,0,0,0,0,0,0,0,0,0,0,0,0,0,0,15,
scooby_state_41042d|46|16 15,0,0,0,0,0,0,0,0,0,0,0,0,0,0,15,
scooby_state_40eeff|22|1 15,0,0,0,0,0,0,0,0,0,0,0,0,0,0,15,
scooby_state_40eb55|34|16 15,0,0,0,0,0,0,0,0,0,0,0,0,0,0,15,
scooby_state_410aec|3|1 15,0,0,0,0,0,0,0,0,0,0,0,0,0,0,15,
scooby_state_40e8f4|47|15 15,0,0,0,0,0,0,0,0,0,0,0,0,0,0,15,
scooby_state_40f138|0|0 15,0,0,0,0,0,0,0,0,0,0,0,0,0,0,15,
scooby_state_40e725|57|1 15,0,0,0,0,0,0,0,0,0,0,0,0,0,0,15,
scooby_state_40e74d|3|1 15,0,0,0,0,0,0,0,0,0,0,0,0,0,0,15,
scooby_state_40ea0b|31|15 15,0,0,0,0,0,0,0,0,0,0,0,0,0,0,15,
scooby_state_40f48d|14|1 15,0,0,0,0,0,0,0,0,0,0,0,0,0,0,15,
scooby_state_410457|58|16 15,0,0,0,0,0,0,0,0,0,0,0,0,0,0,15,
scooby_state_40e6ba|38|1 15,0,0,0,0,0,0,0,0,0,0,0,0,0,0,15,
scooby_state_40ed43|11|-14 15,0,0,0,0,0,0,0,0,0,0,0,0,0,0,15,
scooby_state_40ebae|55|15 15,0,0,0,0,0,0,0,0,0,0,0,0,0,0,15,
scooby_state_40e61b|26|1 15,0,0,0,0,0,0,0,0,0,0,0,0,0,0,15,
scooby_state_410b11|36|-15 15,0,0,0,0,0,0,0,0,0,0,0,0,0,0,15,
scooby_state_40e74d|2|1 15,0,0,0,0,0,0,0,0,0,0,0,0,0,0,15,
scooby_state_40e6f4|60|1 15,0,0,0,0,0,0,0,0,0,0,0,0,0,0,15,
scooby_state_40e794|61|1 14,0,0,0,1,0,0,0,0,0,0,0,0,0,0,15,
scooby_state_40f48d|15|1 15,0,0,0,0,0,0,0,0,0,0,0,0,0,0,15,
scooby_state_40edfe|21|15 15,0,0,0,0,0,0,0,0,0,0,0,0,0,0,15,
scooby_state_410b15|39|-15 15,0,0,0,0,0,0,0,0,0,0,0,0,0,0,15,
scooby_state_40f14a|46|-15 15,0,0,0,0,0,0,0,0,0,0,0,0,0,0,15,
scooby_state_40eb0e|38|-15 15,0,0,0,0,0,0,0,0,0,0,0,0,0,0,15,
scooby_state_40e794|4|1 15,0,0,0,0,0,0,0,0,0,0,0,0,0,0,15,
scooby_state_40e9fd|21|15 15,0,0,0,0,0,0,0,0,0,0,0,0,0,0,15,
scooby_state_40e6a3|51|1 15,0,0,0,0,0,0,0,0,0,0,0,0,0,0,15,
scooby_state_40ebbc|56|15 15,0,0,0,0,0,0,0,0,0,0,0,0,0,0,15,
scooby_state_40ebc6|26|-30 15,0,0,0,0,0,0,0,0,0,0,0,0,0,0,15,
scooby_state_40f12a|0|0 15,0,0,0,0,0,0,0,0,0,0,0,0,0,0,15,
scooby_state_40f40b|58|15 15,0,0,0,0,0,0,0,0,0,0,0,0,0,0,15,
scooby_state_410b11|44|-15 15,0,0,0,0,0,0,0,0,0,0,0,0,0,0,15,
scooby_state_40ebc6|38|-15 15,0,0,0,0,0,0,0,0,0,0,0,0,0,0,15,
scooby_state_40fa3f|62|16 15,0,0,0,0,0,0,0,0,0,0,0,0,0,0,15,
scooby_state_40e944|23|16 15,0,0,0,0,0,0,0,0,0,0,0,0,0,0,15,
scooby_state_40e944|10|-14 15,0,0,0,0,0,0,0,0,0,0,0,0,0,0,15,
scooby_state_40f439|15|-30 15,0,0,0,0,0,0,0,0,0,0,0,0,0,0,15,
scooby_state_40ebbc|54|15 15,0,0,0,0,0,0,0,0,0,0,0,0,0,0,15,
scooby_state_40e76c|60|1 15,0,0,0,0,0,0,0,0,0,0,0,0,0,0,15,
scooby_state_40e7ab|3|1 15,0,0,0,0,0,0,0,0,0,0,0,0,0,0,15,
scooby_state_40f14a|49|1 15,0,0,0,0,0,0,0,0,0,0,0,0,0,0,15,
scooby_state_410457|3|-14 15,0,0,0,0,0,0,0,0,0,0,0,0,0,0,15,
scooby_state_40eb60|51|16 15,0,0,0,0,0,0,0,0,0,0,0,0,0,0,15,
scooby_state_40ebc2|17|-30 15,0,0,0,0,0,0,0,0,0,0,0,0,0,0,15,
scooby_state_40eb0e|37|-15 15,0,0,0,0,0,0,0,0,0,0,0,0,0,0,15,
scooby_state_410b11|33|-30 15,0,0,0,0,0,0,0,0,0,0,0,0,0,0,15,
scooby_state_40edfe|28|15 15,0,0,0,0,0,0,0,0,0,0,0,0,0,0,15,
scooby_state_40ea8a|60|16 15,0,0,0,0,0,0,0,0,0,0,0,0,0,0,15,
scooby_state_410aec|7|1 15,0,0,0,0,0,0,0,0,0,0,0,0,0,0,15,
scooby_state_40ecc6|58|1 15,0,0,0,0,0,0,0,0,0,0,0,0,0,0,15,
scooby_state_40e8f4|41|15 15,0,0,0,0,0,0,0,0,0,0,0,0,0,0,15,
scooby_state_40eb08|0|0 15,0,0,0,0,0,0,0,0,0,0,0,0,0,0,15,
scooby_state_40ebc2|30|-30 15,0,0,0,0,0,0,0,0,0,0,0,0,0,0,15,
scooby_state_410150|16|15 15,0,0,0,0,0,0,0,0,0,0,0,0,0,0,15,
scooby_state_410457|55|16 15,0,0,0,0,0,0,0,0,0,0,0,0,0,0,15,
scooby_state_40e6a3|48|1 15,0,0,0,0,0,0,0,0,0,0,0,0,0,0,15,
scooby_state_40eb60|41|16 15,0,0,0,0,0,0,0,0,0,0,0,0,0,0,15,
scooby_state_40ea8a|59|16 15,0,0,0,0,0,0,0,0,0,0,0,0,0,0,15,
scooby_state_410160|47|-15 15,0,0,0,0,0,0,0,0,0,0,0,0,0,0,15,
scooby_state_40eb0e|34|-15 15,0,0,0,0,0,0,0,0,0,0,0,0,0,0,15,
scooby_state_40e725|47|1 15,0,0,0,0,0,0,0,0,0,0,0,0,0,0,15,
scooby_state_40ecc6|4|-30 15,0,0,0,0,0,0,0,0,0,0,0,0,0,0,15,
scooby_state_40ee10|57|1 15,0,0,0,0,0,0,0,0,0,0,0,0,0,0,15,
scooby_state_40ecc6|3|-30 15,0,0,0,0,0,0,0,0,0,0,0,0,0,0,15,
scooby_state_40ec60|10|-14 15,0,0,0,0,0,0,0,0,0,0,0,0,0,0,15,
scooby_state_40e76c|49|1 15,0,0,0,0,0,0,0,0,0,0,0,0,0,0,15,
scooby_state_410b11|42|-15 15,0,0,0,0,0,0,0,0,0,0,0,0,0,0,15,
scooby_state_40edf0|18|15 15,0,0,0,0,0,0,0,0,0,0,0,0,0,0,15,
scooby_state_40f439|17|-30 15,0,0,0,0,0,0,0,0,0,0,0,0,0,0,15,
scooby_state_40e8f4|45|15 15,0,0,0,0,0,0,0,0,0,0,0,0,0,0,15,
scooby_state_40e74d|1|1 15,0,0,0,0,0,0,0,0,0,0,0,0,0,0,15,
scooby_state_40e725|43|1 15,0,0,0,0,0,0,0,0,0,0,0,0,0,0,15,
scooby_state_410afa|11|1 15,0,0,0,0,0,0,0,0,0,0,0,0,0,0,15,
scooby_state_40ec9d|26|15 15,0,0,0,0,0,0,0,0,0,0,0,0,0,0,15,
scooby_state_40e6f4|47|1 15,0,0,0,0,0,0,0,0,0,0,0,0,0,0,15,
scooby_state_40f138|9|1 15,0,0,0,0,0,0,0,0,0,0,0,0,0,0,15,
scooby_state_410b15|40|-15 15,0,0,0,0,0,0,0,0,0,0,0,0,0,0,15,
scooby_state_40eeff|21|1 15,0,0,0,0,0,0,0,0,0,0,0,0,0,0,15,
scooby_state_40e65c|35|1 15,0,0,0,0,0,0,0,0,0,0,0,0,0,0,15,
scooby_state_40ee3c|47|16 15,0,0,0,0,0,0,0,0,0,0,0,0,0,0,15,
scooby_state_40f146|40|-15 15,0,0,0,0,0,0,0,0,0,0,0,0,0,0,15,
scooby_state_40edfe|15|15 15,0,0,0,0,0,0,0,0,0,0,0,0,0,0,15,
scooby_state_410afa|15|15 15,0,0,0,0,0,0,0,0,0,0,0,0,0,0,15,
scooby_state_40edfe|23|15 15,0,0,0,0,0,0,0,0,0,0,0,0,0,0,15,
scooby_state_410afa|9|1 15,0,0,0,0,0,0,0,0,0,0,0,0,0,0,15,
scooby_state_40ea0b|30|15 15,0,0,0,0,0,0,0,0,0,0,0,0,0,0,15,
scooby_state_40e76c|58|1 15,0,0,0,0,0,0,0,0,0,0,0,0,0,0,15,
scooby_state_40f12a|55|15 15,0,0,0,0,0,0,0,0,0,0,0,0,0,0,15,
scooby_state_40ee3c|32|16 15,0,0,0,0,0,0,0,0,0,0,0,0,0,0,15,
scooby_state_40ea0b|35|15 15,0,0,0,0,0,0,0,0,0,0,0,0,0,0,15,
scooby_state_40e94a|15|-14 15,0,0,0,0,0,0,0,0,0,0,0,0,0,0,15,
scooby_state_410160|46|-15 15,0,0,0,0,0,0,0,0,0,0,0,0,0,0,15,
scooby_state_40ed3e|62|16 15,0,0,0,0,0,0,0,0,0,0,0,0,0,0,15,
scooby_state_40ed3e|57|16 15,0,0,0,0,0,0,0,0,0,0,0,0,0,0,15,
scooby_state_40e944|16|16 15,0,0,0,0,0,0,0,0,0,0,0,0,0,0,15,
scooby_state_410160|48|-15 15,0,0,0,0,0,0,0,0,0,0,0,0,0,0,15,
scooby_state_40e76c|50|1 15,0,0,0,0,0,0,0,0,0,0,0,0,0,0,15,
scooby_state_41042d|47|16 15,0,0,0,0,0,0,0,0,0,0,0,0,0,0,15,
scooby_state_40e5e1|35|1 15,0,0,0,0,0,0,0,0,0,0,0,0,0,0,15,
scooby_state_40ec60|14|-14 15,0,0,0,0,0,0,0,0,0,0,0,0,0,0,15,
scooby_state_40ee3c|36|16 15,0,0,0,0,0,0,0,0,0,0,0,0,0,0,15,
scooby_state_40f146|26|-30 15,0,0,0,0,0,0,0,0,0,0,0,0,0,0,15,
scooby_state_40e74d|54|1 15,0,0,0,0,0,0,0,0,0,0,0,0,0,0,15,
scooby_state_40ecc6|60|1 15,0,0,0,0,0,0,0,0,0,0,0,0,0,0,15,
scooby_state_40ebc6|37|-15 15,0,0,0,0,0,0,0,0,0,0,0,0,0,0,15,
scooby_state_40ebae|46|15 15,0,0,0,0,0,0,0,0,0,0,0,0,0,0,15,
scooby_state_410afa|6|1 15,0,0,0,0,0,0,0,0,0,0,0,0,0,0,15,
scooby_state_40ef04|28|1 15,0,0,0,0,0,0,0,0,0,0,0,0,0,0,15,
scooby_state_40e5e1|36|1 15,0,0,0,0,0,0,0,0,0,0,0,0,0,0,15,
scooby_state_40ea15|13|-30 15,0,0,0,0,0,0,0,0,0,0,0,0,0,0,15,
scooby_state_40f146|31|-30 15,0,0,0,0,0,0,0,0,0,0,0,0,0,0,15,
scooby_state_40eb08|1|1 15,0,0,0,0,0,0,0,0,0,0,0,0,0,0,15,
scooby_state_40ebae|48|15 15,0,0,0,0,0,0,0,0,0,0,0,0,0,0,15,
scooby_state_40ed3e|60|16 15,0,0,0,0,0,0,0,0,0,0,0,0,0,0,15,
scooby_state_40e94a|19|16 15,0,0,0,0,0,0,0,0,0,0,0,0,0,0,15,
scooby_state_40e944|15|-14 15,0,0,0,0,0,0,0,0,0,0,0,0,0,0,15,
scooby_state_40f439|24|-30 15,0,0,0,0,0,0,0,0,0,0,0,0,0,0,15,
scooby_state_40ee0c|40|-15 15,0,0,0,0,0,0,0,0,0,0,0,0,0,0,15,
scooby_state_40ebbc|53|15 15,0,0,0,0,0,0,0,0,0,0,0,0,0,0,15,
scooby_state_40e6ba|44|1 15,0,0,0,0,0,0,0,0,0,0,0,0,0,0,15,
scooby_state_40ea15|12|-30 15,0,0,0,0,0,0,0,0,0,0,0,0,0,0,15,
scooby_state_40ed43|63|16 15,0,0,0,0,0,0,0,0,0,0,0,0,0,0,15,
scooby_state_40e8f4|39|15 15,0,0,0,0,0,0,0,0,0,0,0,0,0,0,15,
scooby_state_40ee10|49|1 15,0,0,0,0,0,0,0,0,0,0,0,0,0,0,15,
scooby_state_40eb60|44|16 15,0,0,0,0,0,0,0,0,0,0,0,0,0,0,15,
scooby_state_40ec9d|34|15 15,0,0,0,0,0,0,0,0,0,0,0,0,0,0,15,
scooby_state_40fa3f|8|-14 15,0,0,0,0,0,0,0,0,0,0,0,0,0,0,15,
scooby_state_40ebc6|25|-30 15,0,0,0,0,0,0,0,0,0,0,0,0,0,0,15,
scooby_state_40ec9d|23|15 15,0,0,0,0,0,0,0,0,0,0,0,0,0,0,15,
scooby_state_40eb55|32|16 15,0,0,0,0,0,0,0,0,0,0,0,0,0,0,15,
scooby_state_40eb55|35|16 15,0,0,0,0,0,0,0,0,0,0,0,0,0,0,15,
scooby_state_410160|63|1 15,0,0,0,0,0,0,0,0,0,0,0,0,0,0,15,
scooby_state_40ebbc|6|1 15,0,0,0,0,0,0,0,0,0,0,0,0,0,0,15,
scooby_state_40ee0c|48|-15 15,0,0,0,0,0,0,0,0,0,0,0,0,0,0,15,
scooby_state_40ea15|5|-30 14,0,1,0,0,0,0,0,0,0,0,0,0,0,0,15,
scooby_state_40f4a5|9|1 15,0,0,0,0,0,0,0,0,0,0,0,0,0,0,15,
scooby_state_40e725|59|1 15,0,0,0,0,0,0,0,0,0,0,0,0,0,0,15,
scooby_state_40ebc2|16|-30 15,0,0,0,0,0,0,0,0,0,0,0,0,0,0,15,
scooby_state_40ee0c|52|1 15,0,0,0,0,0,0,0,0,0,0,0,0,0,0,15,
scooby_state_40f14a|33|-30 15,0,0,0,0,0,0,0,0,0,0,0,0,0,0,15,
scooby_state_40ebae|60|15 15,0,0,0,0,0,0,0,0,0,0,0,0,0,0,15,
scooby_state_40f48d|16|1 15,0,0,0,0,0,0,0,0,0,0,0,0,0,0,15,
scooby_state_40e725|54|1 15,0,0,0,0,0,0,0,0,0,0,0,0,0,0,15,
scooby_state_40e794|6|1 15,0,0,0,0,0,0,0,0,0,0,0,0,0,0,15,
scooby_state_40e8f4|49|15 15,0,0,0,0,0,0,0,0,0,0,0,0,0,0,15,
scooby_state_40e8fa|19|-30 15,0,0,0,0,0,0,0,0,0,0,0,0,0,0,15,
scooby_state_40e61b|25|1 15,0,0,0,0,0,0,0,0,0,0,0,0,0,0,15,
scooby_state_40e794|59|1 15,0,0,0,0,0,0,0,0,0,0,0,0,0,0,15,
scooby_state_40e6a3|45|1 15,0,0,0,0,0,0,0,0,0,0,0,0,0,0,15,
scooby_state_40ea8a|58|16 15,0,0,0,0,0,0,0,0,0,0,0,0,0,0,15,
scooby_state_40ea0b|41|15 15,0,0,0,0,0,0,0,0,0,0,0,0,0,0,15,
scooby_state_410b15|41|-15 15,0,0,0,0,0,0,0,0,0,0,0,0,0,0,15,
scooby_state_40ea11|3|-30 15,0,0,0,0,0,0,0,0,0,0,0,0,0,0,15,
scooby_state_40f12a|2|1 15,0,0,0,0,0,0,0,0,0,0,0,0,0,0,15,
scooby_state_40ec9d|22|15 15,0,0,0,0,0,0,0,0,0,0,0,0,0,0,15,
scooby_state_40f146|36|-15 15,0,0,0,0,0,0,0,0,0,0,0,0,0,0,15,
scooby_state_40f14a|44|-15 15,0,0,0,0,0,0,0,0,0,0,0,0,0,0,15,
scooby_state_40e76c|57|1 15,0,0,0,0,0,0,0,0,0,0,0,0,0,0,15,
scooby_state_40e8f4|50|15 15,0,0,0,0,0,0,0,0,0,0,0,0,0,0,15,
scooby_state_40e5e1|31|1 15,0,0,0,0,0,0,0,0,0,0,0,0,0,0,15,
scooby_state_40ebc6|23|-30 15,0,0,0,0,0,0,0,0,0,0,0,0,0,0,15,
scooby_state_40ec60|13|-14 15,0,0,0,0,0,0,0,0,0,0,0,0,0,0,15,
scooby_state_40eb60|42|16 15,0,0,0,0,0,0,0,0,0,0,0,0,0,0,15,
scooby_state_40eb55|42|16 15,0,0,0,0,0,0,0,0,0,0,0,0,0,0,15,
scooby_state_40eb0e|43|-15 15,0,0,0,0,0,0,0,0,0,0,0,0,0,0,15,
scooby_state_40ee3c|40|16 15,0,0,0,0,0,0,0,0,0,0,0,0,0,0,15,
scooby_state_40e8f4|44|15 15,0,0,0,0,0,0,0,0,0,0,0,0,0,0,15,
scooby_state_40ebc2|27|-30 15,0,0,0,0,0,0,0,0,0,0,0,0,0,0,15,
scooby_state_40f48d|11|1 15,0,0,0,0,0,0,0,0,0,0,0,0,0,0,15,
scooby_state_410b15|52|1 15,0,0,0,0,0,0,0,0,0,0,0,0,0,0,15,
scooby_state_40f48d|7|1 15,0,0,0,0,0,0,0,0,0,0,0,0,0,0,15,
scooby_state_410150|25|15 15,0,0,0,0,0,0,0,0,0,0,0,0,0,0,15,
scooby_state_40f40b|62|15 15,0,0,0,0,0,0,0,0,0,0,0,0,0,0,15,
scooby_state_40f439|18|-30 15,0,0,0,0,0,0,0,0,0,0,0,0,0,0,15,
scooby_state_40e61b|36|1 15,0,0,0,0,0,0,0,0,0,0,0,0,0,0,15,
scooby_state_410b11|31|-30 15,0,0,0,0,0,0,0,0,0,0,0,0,0,0,15,
scooby_state_40e67b|42|1 15,0,0,0,0,0,0,0,0,0,0,0,0,0,0,15,
scooby_state_40e65c|46|1 15,0,0,0,0,0,0,0,0,0,0,0,0,0,0,15,
scooby_state_40e61b|31|1 15,0,0,0,0,0,0,0,0,0,0,0,0,0,0,15,
scooby_state_40e6ba|48|1 15,0,0,0,0,0,0,0,0,0,0,0,0,0,0,15,
scooby_state_410b11|46|-15 15,0,0,0,0,0,0,0,0,0,0,0,0,0,0,15,
scooby_state_40ebbc|2|1 15,0,0,0,0,0,0,0,0,0,0,0,0,0,0,15,
scooby_state_40ebc6|36|-15 15,0,0,0,0,0,0,0,0,0,0,0,0,0,0,15,
scooby_state_40f4a5|20|1 15,0,0,0,0,0,0,0,0,0,0,0,0,0,0,15,
scooby_state_40ee10|55|1 15,0,0,0,0,0,0,0,0,0,0,0,0,0,0,15,
scooby_state_40e67b|32|1 15,0,0,0,0,0,0,0,0,0,0,0,0,0,0,15,
scooby_state_40ea0b|29|15 15,0,0,0,0,0,0,0,0,0,0,0,0,0,0,15,
scooby_state_40e9fd|26|15 15,0,0,0,0,0,0,0,0,0,0,0,0,0,0,15,
scooby_state_40e6f4|48|1 15,0,0,0,0,0,0,0,0,0,0,0,0,0,0,15,
scooby_state_40e7ab|55|1 15,0,0,0,0,0,0,0,0,0,0,0,0,0,0,15,
scooby_state_40ed43|6|-14 15,0,0,0,0,0,0,0,0,0,0,0,0,0,0,15,
scooby_state_40f146|32|-30 15,0,0,0,0,0,0,0,0,0,0,0,0,0,0,15,
scooby_state_40e65c|47|1 15,0,0,0,0,0,0,0,0,0,0,0,0,0,0,15,
scooby_state_40f4a5|23|1 15,0,0,0,0,0,0,0,0,0,0,0,0,0,0,15,
scooby_state_40e6a3|53|1 15,0,0,0,0,0,0,0,0,0,0,0,0,0,0,15,
scooby_state_40e61b|37|1 15,0,0,0,0,0,0,0,0,0,0,0,0,0,0,15,
scooby_state_40e6f4|59|1 15,0,0,0,0,0,0,0,0,0,0,0,0,0,0,15,
scooby_state_40e794|7|1 15,0,0,0,0,0,0,0,0,0,0,0,0,0,0,15,
scooby_state_40ee10|61|1 15,0,0,0,0,0,0,0,0,0,0,0,0,0,0,15,
scooby_state_40e9fd|34|15 15,0,0,0,0,0,0,0,0,0,0,0,0,0,0,15,
scooby_state_40f40b|51|15 15,0,0,0,0,0,0,0,0,0,0,0,0,0,0,15,
scooby_state_410160|59|1 15,0,0,0,0,0,0,0,0,0,0,0,0,0,0,15,
scooby_state_40e6ba|37|1 15,0,0,0,0,0,0,0,0,0,0,0,0,0,0,15,
scooby_state_40eeff|24|1 15,0,0,0,0,0,0,0,0,0,0,0,0,0,0,15,
scooby_state_410457|2|-14 15,0,0,0,0,0,0,0,0,0,0,0,0,0,0,15,
scooby_state_40f439|28|-30 15,0,0,0,0,0,0,0,0,0,0,0,0,0,0,15,
scooby_state_410b11|43|-15 15,0,0,0,0,0,0,0,0,0,0,0,0,0,0,15,
scooby_state_40ebc2|15|-30 15,0,0,0,0,0,0,0,0,0,0,0,0,0,0,15,
scooby_state_40f14a|40|-15 15,0,0,0,0,0,0,0,0,0,0,0,0,0,0,15,
scooby_state_410b15|51|1 15,0,0,0,0,0,0,0,0,0,0,0,0,0,0,15,
scooby_state_40ee0c|51|1 15,0,0,0,0,0,0,0,0,0,0,0,0,0,0,15,
scooby_state_40ea8a|56|16 15,0,0,0,0,0,0,0,0,0,0,0,0,0,0,15,
scooby_state_40eb0e|44|-15 15,0,0,0,0,0,0,0,0,0,0,0,0,0,0,15,
scooby_state_40ecc6|59|1 15,0,0,0,0,0,0,0,0,0,0,0,0,0,0,15,
scooby_state_40ef04|40|1 15,0,0,0,0,0,0,0,0,0,0,0,0,0,0,15,
scooby_state_40e6ba|43|1 15,0,0,0,0,0,0,0,0,0,0,0,0,0,0,15,
scooby_state_40ebae|58|15 15,0,0,0,0,0,0,0,0,0,0,0,0,0,0,15,
scooby_state_40e5e1|41|1 15,0,0,0,0,0,0,0,0,0,0,0,0,0,0,15,
scooby_state_40f4a5|24|1 15,0,0,0,0,0,0,0,0,0,0,0,0,0,0,15,
scooby_state_40ee3c|34|16 15,0,0,0,0,0,0,0,0,0,0,0,0,0,0,15,
scooby_state_40ea8a|52|16 15,0,0,0,0,0,0,0,0,0,0,0,0,0,0,15,
scooby_state_40f146|27|-30 15,0,0,0,0,0,0,0,0,0,0,0,0,0,0,15,
scooby_state_410457|57|16 15,0,0,0,0,0,0,0,0,0,0,0,0,0,0,15,
scooby_state_40edf0|21|15 15,0,0,0,0,0,0,0,0,0,0,0,0,0,0,15,
scooby_state_410b11|41|-15 15,0,0,0,0,0,0,0,0,0,0,0,0,0,0,15,
scooby_state_40f40b|63|15 15,0,0,0,0,0,0,0,0,0,0,0,0,0,0,15,
scooby_state_40f14a|35|-15 15,0,0,0,0,0,0,0,0,0,0,0,0,0,0,15,
scooby_state_40eb0e|35|-15 15,0,0,0,0,0,0,0,0,0,0,0,0,0,0,15,
scooby_state_40e7ab|62|1 15,0,0,0,0,0,0,0,0,0,0,0,0,0,0,15,
scooby_state_40eb08|14|1 15,0,0,0,0,0,0,0,0,0,0,0,0,0,0,15,
scooby_state_40f439|27|-30 15,0,0,0,0,0,0,0,0,0,0,0,0,0,0,15,
scooby_state_40f12a|58|15 14,0,0,0,0,0,1,0,0,0,0,0,0,0,0,15,
scooby_state_40ef04|34|1 15,0,0,0,0,0,0,0,0,0,0,0,0,0,0,15,
scooby_state_40eeff|18|1 15,0,0,0,0,0,0,0,0,0,0,0,0,0,0,15,
scooby_state_40e9fd|29|15 15,0,0,0,0,0,0,0,0,0,0,0,0,0,0,15,
scooby_state_40e8fa|7|-30 15,0,0,0,0,0,0,0,0,0,0,0,0,0,0,15,
scooby_state_40eb60|39|16 15,0,0,0,0,0,0,0,0,0,0,0,0,0,0,15,
scooby_state_40fa3f|1|-14 15,0,0,0,0,0,0,0,0,0,0,0,0,0,0,15,
scooby_state_410160|50|1 15,0,0,0,0,0,0,0,0,0,0,0,0,0,0,15,
scooby_state_40e7ab|61|1 15,0,0,0,0,0,0,0,0,0,0,0,0,0,0,15,
scooby_state_40eeff|15|1 15,0,0,0,0,0,0,0,0,0,0,0,0,0,0,15,
scooby_state_40e794|5|1 14,0,0,0,1,0,0,0,0,0,0,0,0,0,0,15,
scooby_state_40e5e1|39|1 15,0,0,0,0,0,0,0,0,0,0,0,0,0,0,15,
scooby_state_40ed3e|58|16 15,0,0,0,0,0,0,0,0,0,0,0,0,0,0,15,
scooby_state_410b11|34|-15 15,0,0,0,0,0,0,0,0,0,0,0,0,0,0,15,
scooby_state_40f48d|9|1 15,0,0,0,0,0,0,0,0,0,0,0,0,0,0,15,
scooby_state_40ea11|7|-30 15,0,0,0,0,0,0,0,0,0,0,0,0,0,0,15,
scooby_state_40e794|3|1 15,0,0,0,0,0,0,0,0,0,0,0,0,0,0,15,
scooby_state_40ea15|63|1 15,0,0,0,0,0,0,0,0,0,0,0,0,0,0,15,
scooby_state_40eb0e|47|-15 15,0,0,0,0,0,0,0,0,0,0,0,0,0,0,15,
scooby_state_40e6f4|49|1 15,0,0,0,0,0,0,0,0,0,0,0,0,0,0,15,
scooby_state_40e944|22|16 15,0,0,0,0,0,0,0,0,0,0,0,0,0,0,15,
scooby_state_40e5e1|45|1 15,0,0,0,0,0,0,0,0,0,0,0,0,0,0,15,
scooby_state_40e94a|17|16 15,0,0,0,0,0,0,0,0,0,0,0,0,0,0,15,
scooby_state_40e9fd|38|15 15,0,0,0,0,0,0,0,0,0,0,0,0,0,0,15,
scooby_state_40e94a|14|-14 15,0,0,0,0,0,0,0,0,0,0,0,0,0,0,15,
scooby_state_410b15|38|-15 15,0,0,0,0,0,0,0,0,0,0,0,0,0,0,15,
scooby_state_40e65c|37|1 15,0,0,0,0,0,0,0,0,0,0,0,0,0,0,15,
scooby_state_40ecc6|0|-30 15,0,0,0,0,0,0,0,0,0,0,0,0,0,0,15,
scooby_state_40e7ab|2|1 15,0,0,0,0,0,0,0,0,0,0,0,0,0,0,15,
scooby_state_40edf0|17|15 15,0,0,0,0,0,0,0,0,0,0,0,0,0,0,15,
scooby_state_40ef04|29|1 15,0,0,0,0,0,0,0,0,0,0,0,0,0,0,15,
scooby_state_40f40b|61|15 15,0,0,0,0,0,0,0,0,0,0,0,0,0,0,15,
scooby_state_40f439|33|-30 15,0,0,0,0,0,0,0,0,0,0,0,0,0,0,15,
scooby_state_410afa|16|15 15,0,0,0,0,0,0,0,0,0,0,0,0,0,0,15,
scooby_state_410b11|30|-30 15,0,0,0,0,0,0,0,0,0,0,0,0,0,0,15,
scooby_state_410b15|50|1 15,0,0,0,0,0,0,0,0,0,0,0,0,0,0,15,
scooby_state_40ec9d|24|15 15,0,0,0,0,0,0,0,0,0,0,0,0,0,0,15,
scooby_state_40f12a|57|15 15,0,0,0,0,0,0,0,0,0,0,0,0,0,0,15,
scooby_state_40e6ba|41|1 15,0,0,0,0,0,0,0,0,0,0,0,0,0,0,15,
scooby_state_40ef04|25|1 15,0,0,0,0,0,0,0,0,0,0,0,0,0,0,15,
scooby_state_40ed3e|2|-14 15,0,0,0,0,0,0,0,0,0,0,0,0,0,0,15,
scooby_state_410150|22|15 15,0,0,0,0,0,0,0,0,0,0,0,0,0,0,15,
scooby_state_40ed43|10|-14 15,0,0,0,0,0,0,0,0,0,0,0,0,0,0,15,
scooby_state_410457|54|16 15,0,0,0,0,0,0,0,0,0,0,0,0,0,0,15,
scooby_state_40edfe|25|15 15,0,0,0,0,0,0,0,0,0,0,0,0,0,0,15,
scooby_state_40f4a5|15|1 15,0,0,0,0,0,0,0,0,0,0,0,0,0,0,15,
scooby_state_40eb08|7|1 15,0,0,0,0,0,0,0,0,0,0,0,0,0,0,15,
scooby_state_40e94a|26|16 15,0,0,0,0,0,0,0,0,0,0,0,0,0,0,15,
scooby_state_40ec9d|25|15 15,0,0,0,0,0,0,0,0,0,0,0,0,0,0,15,
scooby_state_410aec|0|0 15,0,0,0,0,0,0,0,0,0,0,0,0,0,0,15,
scooby_state_410b15|42|-15 15,0,0,0,0,0,0,0,0,0,0,0,0,0,0,15,
scooby_state_40ef04|23|1 15,0,0,0,0,0,0,0,0,0,0,0,0,0,0,15,
scooby_state_40e6a3|42|1 15,0,0,0,0,0,0,0,0,0,0,0,0,0,0,15,
scooby_state_410160|60|1 15,0,0,0,0,0,0,0,0,0,0,0,0,0,0,15,
scooby_state_40f40b|48|15 15,0,0,0,0,0,0,0,0,0,0,0,0,0,0,15,
scooby_state_40ed43|2|-14 14,0,0,0,0,0,0,0,0,0,1,0,0,0,0,15,
scooby_state_40edfe|22|15 14,0,0,0,0,0,0,1,0,0,0,0,0,0,0,15,
scooby_state_40f40b|57|15 15,0,0,0,0,0,0,0,0,0,0,0,0,0,0,15,
scooby_state_40f439|22|-30 15,0,0,0,0,0,0,0,0,0,0,0,0,0,0,15,
scooby_state_40edf0|6|1 15,0,0,0,0,0,0,0,0,0,0,0,0,0,0,15,
scooby_state_40ee10|0|-30 15,0,0,0,0,0,0,0,0,0,0,0,0,0,0,15,
scooby_state_40e65c|39|1 15,0,0,0,0,0,0,0,0,0,0,0,0,0,0,15,
scooby_state_40ecc6|56|1 15,0,0,0,0,0,0,0,0,0,0,0,0,0,0,15,
scooby_state_40eb60|47|16 15,0,0,0,0,0,0,0,0,0,0,0,0,0,0,15,
scooby_state_40ebc6|27|-30 15,0,0,0,0,0,0,0,0,0,0,0,0,0,0,15,
scooby_state_410aec|6|1 15,0,0,0,0,0,0,0,0,0,0,0,0,0,0,15,
scooby_state_40e794|58|1 15,0,0,0,0,0,0,0,0,0,0,0,0,0,0,15,
scooby_state_410aec|8|1 14,0,0,0,1,0,0,0,0,0,0,0,0,0,0,15,
scooby_state_40ef04|32|1 15,0,0,0,0,0,0,0,0,0,0,0,0,0,0,15,
scooby_state_41042d|52|16 15,0,0,0,0,0,0,0,0,0,0,0,0,0,0,15,
scooby_state_40ee3c|31|16 15,0,0,0,0,0,0,0,0,0,0,0,0,0,0,15,
scooby_state_40ecc6|62|1 15,0,0,0,0,0,0,0,0,0,0,0,0,0,0,15,
scooby_state_40fa3f|10|-14 14,1,0,0,0,0,0,0,0,0,0,0,0,0,0,15,
scooby_state_40e6a3|41|1 15,0,0,0,0,0,0,0,0,0,0,0,0,0,0,15,
scooby_state_40ebae|51|15 15,0,0,0,0,0,0,0,0,0,0,0,0,0,0,15,
scooby_state_40f40b|52|15 15,0,0,0,0,0,0,0,0,0,0,0,0,0,0,15,
scooby_state_410b11|45|-15 15,0,0,0,0,0,0,0,0,0,0,0,0,0,0,15,
scooby_state_40ef04|31|1 15,0,0,0,0,0,0,0,0,0,0,0,0,0,0,15,
scooby_state_40e7ab|6|1 15,0,0,0,0,0,0,0,0,0,0,0,0,0,0,15,
scooby_state_40e94a|27|16 15,0,0,0,0,0,0,0,0,0,0,0,0,0,0,15,
scooby_state_410b15|45|-15 15,0,0,0,0,0,0,0,0,0,0,0,0,0,0,15,
scooby_state_40ec9d|28|15 15,0,0,0,0,0,0,0,0,0,0,0,0,0,0,15,
scooby_state_410aec|1|1 15,0,0,0,0,0,0,0,0,0,0,0,0,0,0,15,
scooby_state_40eeff|25|1 15,0,0,0,0,0,0,0,0,0,0,0,0,0,0,15,
scooby_state_40ec60|7|-14 15,0,0,0,0,0,0,0,0,0,0,0,0,0,0,15,
scooby_state_40e67b|31|1 15,0,0,0,0,0,0,0,0,0,0,0,0,0,0,15,
scooby_state_40eeff|31|1 15,0,0,0,0,0,0,0,0,0,0,0,0,0,0,15,
scooby_state_40ebbc|0|0 15,0,0,0,0,0,0,0,0,0,0,0,0,0,0,15,
scooby_state_40e74d|53|1 15,0,0,0,0,0,0,0,0,0,0,0,0,0,0,15,
scooby_state_410b11|40|-15 15,0,0,0,0,0,0,0,0,0,0,0,0,0,0,15,
scooby_state_40ebc2|25|-30 15,0,0,0,0,0,0,0,0,0,0,0,0,0,0,15,
scooby_state_40f439|20|-30 15,0,0,0,0,0,0,0,0,0,0,0,0,0,0,15,
scooby_state_40eeff|26|1 15,0,0,0,0,0,0,0,0,0,0,0,0,0,0,15,
scooby_state_40ed43|0|-14 15,0,0,0,0,0,0,0,0,0,0,0,0,0,0,15,
scooby_state_40ee0c|41|-15 15,0,0,0,0,0,0,0,0,0,0,0,0,0,0,15,
scooby_state_41042d|59|16 15,0,0,0,0,0,0,0,0,0,0,0,0,0,0,15,
scooby_state_40ee0c|46|-15 15,0,0,0,0,0,0,0,0,0,0,0,0,0,0,15,
scooby_state_40edf0|10|1 15,0,0,0,0,0,0,0,0,0,0,0,0,0,0,15,
scooby_state_40ebbc|1|1 15,0,0,0,0,0,0,0,0,0,0,0,0,0,0,15,
scooby_state_40ec60|22|16 15,0,0,0,0,0,0,0,0,0,0,0,0,0,0,15,
scooby_state_40e76c|61|1 15,0,0,0,0,0,0,0,0,0,0,0,0,0,0,15,
scooby_state_40f48d|3|1 15,0,0,0,0,0,0,0,0,0,0,0,0,0,0,15,
scooby_state_40ea11|61|1 15,0,0,0,0,0,0,0,0,0,0,0,0,0,0,15,
scooby_state_40ed43|15|-14 15,0,0,0,0,0,0,0,0,0,0,0,0,0,0,15,
scooby_state_410aec|12|1 15,0,0,0,0,0,0,0,0,0,0,0,0,0,0,15,
scooby_state_40e7ab|56|1 15,0,0,0,0,0,0,0,0,0,0,0,0,0,0,15,
scooby_state_40ee10|52|1 15,0,0,0,0,0,0,0,0,0,0,0,0,0,0,15,
scooby_state_40ebc2|24|-30 15,0,0,0,0,0,0,0,0,0,0,0,0,0,0,15,
scooby_state_40e6ba|50|1 15,0,0,0,0,0,0,0,0,0,0,0,0,0,0,15,
scooby_state_40e6f4|46|1 14,1,0,0,0,0,0,0,0,0,0,0,0,0,0,15,
scooby_state_40eb55|40|16 15,0,0,0,0,0,0,0,0,0,0,0,0,0,0,15,
scooby_state_40eeff|27|1 15,0,0,0,0,0,0,0,0,0,0,0,0,0,0,15,
scooby_state_40ed3e|1|-14 15,0,0,0,0,0,0,0,0,0,0,0,0,0,0,15,
scooby_state_40ed43|3|-14 15,0,0,0,0,0,0,0,0,0,0,0,0,0,0,15,
scooby_state_40f12a|60|15 15,0,0,0,0,0,0,0,0,0,0,0,0,0,0,15,
scooby_state_40ea15|6|-30 15,0,0,0,0,0,0,0,0,0,0,0,0,0,0,15,
scooby_state_40e7ab|7|1 15,0,0,0,0,0,0,0,0,0,0,0,0,0,0,15,
scooby_state_40e9fd|27|15 15,0,0,0,0,0,0,0,0,0,0,0,0,0,0,15,
scooby_state_410160|61|1 15,0,0,0,0,0,0,0,0,0,0,0,0,0,0,15,
scooby_state_40e8fa|9|-30 15,0,0,0,0,0,0,0,0,0,0,0,0,0,0,15,
scooby_state_40e6a3|44|1 15,0,0,0,0,0,0,0,0,0,0,0,0,0,0,15,
scooby_state_40eb0e|39|-15 15,0,0,0,0,0,0,0,0,0,0,0,0,0,0,15,
scooby_state_40e794|0|0 15,0,0,0,0,0,0,0,0,0,0,0,0,0,0,15,
scooby_state_40ef04|26|1 15,0,0,0,0,0,0,0,0,0,0,0,0,0,0,15,
scooby_state_40e8f4|36|15 15,0,0,0,0,0,0,0,0,0,0,0,0,0,0,15,
scooby_state_40f4a5|21|1 15,0,0,0,0,0,0,0,0,0,0,0,0,0,0,15,
scooby_state_40f138|2|1 15,0,0,0,0,0,0,0,0,0,0,0,0,0,0,15,
scooby_state_40fa3f|2|-14 15,0,0,0,0,0,0,0,0,0,0,0,0,0,0,15,
scooby_state_40ea15|2|-30 15,0,0,0,0,0,0,0,0,0,0,0,0,0,0,15,
scooby_state_40ec9d|30|15 15,0,0,0,0,0,0,0,0,0,0,0,0,0,0,15,
scooby_state_40f439|23|-30 15,0,0,0,0,0,0,0,0,0,0,0,0,0,0,15,
scooby_state_40f138|6|1 15,0,0,0,0,0,0,0,0,0,0,0,0,0,0,15,
scooby_state_40ee3c|37|16 15,0,0,0,0,0,0,0,0,0,0,0,0,0,0,15,
scooby_state_40ee3c|46|16 15,0,0,0,0,0,0,0,0,0,0,0,0,0,0,15,
scooby_state_40f40b|56|15 15,0,0,0,0,0,0,0,0,0,0,0,0,0,0,15,
scooby_state_40ed43|7|-14 15,0,0,0,0,0,0,0,0,0,0,0,0,0,0,15,
scooby_state_40e7ab|54|1 15,0,0,0,0,0,0,0,0,0,0,0,0,0,0,15,
scooby_state_40e5e1|42|1 15,0,0,0,0,0,0,0,0,0,0,0,0,0,0,15,
scooby_state_40ebc2|31|-30 15,0,0,0,0,0,0,0,0,0,0,0,0,0,0,15,
scooby_state_40eb60|45|16 15,0,0,0,0,0,0,0,0,0,0,0,0,0,0,15,
scooby_state_40f48d|6|1 15,0,0,0,0,0,0,0,0,0,0,0,0,0,0,15,
scooby_state_40e8fa|21|-30 15,0,0,0,0,0,0,0,0,0,0,0,0,0,0,15,
scooby_state_40e8fa|22|-30 15,0,0,0,0,0,0,0,0,0,0,0,0,0,0,15,
scooby_state_40e6ba|47|1 15,0,0,0,0,0,0,0,0,0,0,0,0,0,0,15,
scooby_state_40f40b|59|15 15,0,0,0,0,0,0,0,0,0,0,0,0,0,0,15,
scooby_state_40ee10|53|1 15,0,0,0,0,0,0,0,0,0,0,0,0,0,0,15,
scooby_state_40ee0c|54|1 15,0,0,0,0,0,0,0,0,0,0,0,0,0,0,15,
scooby_state_40ec9d|21|15 15,0,0,0,0,0,0,0,0,0,0,0,0,0,0,15,
scooby_state_40e9fd|35|15 15,0,0,0,0,0,0,0,0,0,0,0,0,0,0,15,
scooby_state_40eb08|3|1 15,0,0,0,0,0,0,0,0,0,0,0,0,0,0,15,
scooby_state_40e65c|43|1 15,0,0,0,0,0,0,0,0,0,0,0,0,0,0,15,
scooby_state_40e794|10|1 15,0,0,0,0,0,0,0,0,0,0,0,0,0,0,15,
scooby_state_40f40b|46|15 15,0,0,0,0,0,0,0,0,0,0,0,0,0,0,15,
scooby_state_40e5e1|33|1 15,0,0,0,0,0,0,0,0,0,0,0,0,0,0,15,
scooby_state_40e65c|51|1 15,0,0,0,0,0,0,0,0,0,0,0,0,0,0,15,
scooby_state_40ef04|35|1 15,0,0,0,0,0,0,0,0,0,0,0,0,0,0,15,
scooby_state_40e8fa|14|-30 15,0,0,0,0,0,0,0,0,0,0,0,0,0,0,15,
scooby_state_410160|52|1 15,0,0,0,0,0,0,0,0,0,0,0,0,0,0,15,
scooby_state_40eeff|29|1 15,0,0,0,0,0,0,0,0,0,0,0,0,0,0,15,
scooby_state_40e7ab|4|1 15,0,0,0,0,0,0,0,0,0,0,0,0,0,0,15,
scooby_state_40eb55|37|16 15,0,0,0,0,0,0,0,0,0,0,0,0,0,0,15,
scooby_state_40e944|20|16 15,0,0,0,0,0,0,0,0,0,0,0,0,0,0,15,
scooby_state_40ebc2|28|-30 15,0,0,0,0,0,0,0,0,0,0,0,0,0,0,15,
scooby_state_40ec9d|33|15 15,0,0,0,0,0,0,0,0,0,0,0,0,0,0,15,
scooby_state_41042d|50|16 15,0,0,0,0,0,0,0,0,0,0,0,0,0,0,15,
scooby_state_40ebae|47|15 15,0,0,0,0,0,0,0,0,0,0,0,0,0,0,15,
scooby_state_40eb55|44|16 15,0,0,0,0,0,0,0,0,0,0,0,0,0,0,15,
scooby_state_40e61b|29|1 15,0,0,0,0,0,0,0,0,0,0,0,0,0,0,15,
scooby_state_40ebbc|61|15 15,0,0,0,0,0,0,0,0,0,0,0,0,0,0,15,
scooby_state_40ea11|6|-30 15,0,0,0,0,0,0,0,0,0,0,0,0,0,0,15,
scooby_state_40e944|7|-14 15,0,0,0,0,0,0,0,0,0,0,0,0,0,0,15,
scooby_state_40ec9d|32|15 15,0,0,0,0,0,0,0,0,0,0,0,0,0,0,15,
scooby_state_40ee3c|43|16 15,0,0,0,0,0,0,0,0,0,0,0,0,0,0,15,
scooby_state_40f40b|49|15 15,0,0,0,0,0,0,0,0,0,0,0,0,0,0,15,
scooby_state_410160|51|1 15,0,0,0,0,0,0,0,0,0,0,0,0,0,0,15,
scooby_state_40ec60|12|-14 15,0,0,0,0,0,0,0,0,0,0,0,0,0,0,15,
scooby_state_40ea11|62|1 15,0,0,0,0,0,0,0,0,0,0,0,0,0,0,15,
scooby_state_40ebae|52|15 15,0,0,0,0,0,0,0,0,0,0,0,0,0,0,15,
scooby_state_40ebc2|22|-30 15,0,0,0,0,0,0,0,0,0,0,0,0,0,0,15,
scooby_state_40e7ab|57|1 15,0,0,0,0,0,0,0,0,0,0,0,0,0,0,15,
scooby_state_40e9fd|20|15 15,0,0,0,0,0,0,0,0,0,0,0,0,0,0,15,
scooby_state_40e67b|40|1 15,0,0,0,0,0,0,0,0,0,0,0,0,0,0,15,
scooby_state_40e725|45|1 15,0,0,0,0,0,0,0,0,0,0,0,0,0,0,15,
scooby_state_40e5e1|38|1 15,0,0,0,0,0,0,0,0,0,0,0,0,0,0,15,
scooby_state_40f146|24|-30 15,0,0,0,0,0,0,0,0,0,0,0,0,0,0,15,
scooby_state_40e6f4|58|1 15,0,0,0,0,0,0,0,0,0,0,0,0,0,0,15,
scooby_state_40ebc2|19|-30 15,0,0,0,0,0,0,0,0,0,0,0,0,0,0,15,
scooby_state_40e65c|36|1 15,0,0,0,0,0,0,0,0,0,0,0,0,0,0,15,
scooby_state_40e76c|51|1 15,0,0,0,0,0,0,0,0,0,0,0,0,0,0,15,
scooby_state_40e94a|22|16 15,0,0,0,0,0,0,0,0,0,0,0,0,0,0,15,
scooby_state_40e944|17|16 15,0,0,0,0,0,0,0,0,0,0,0,0,0,0,15,
scooby_state_410aec|9|1 15,0,0,0,0,0,0,0,0,0,0,0,0,0,0,15,
scooby_state_41042d|51|16 15,0,0,0,0,0,0,0,0,0,0,0,0,0,0,15,
scooby_state_40f4a5|13|1 15,0,0,0,0,0,0,0,0,0,0,0,0,0,0,15,
scooby_state_410457|59|16 15,0,0,0,0,0,0,0,0,0,0,0,0,0,0,15,
scooby_state_40e725|55|1 15,0,0,0,0,0,0,0,0,0,0,0,0,0,0,15,
scooby_state_40f14a|41|-15 15,0,0,0,0,0,0,0,0,0,0,0,0,0,0,15,
scooby_state_40e74d|57|1 15,0,0,0,0,0,0,0,0,0,0,0,0,0,0,15,
scooby_state_40e944|18|16 15,0,0,0,0,0,0,0,0,0,0,0,0,0,0,15,
scooby_state_40f40b|54|15 15,0,0,0,0,0,0,0,0,0,0,0,0,0,0,15,
scooby_state_410160|49|1 15,0,0,0,0,0,0,0,0,0,0,0,0,0,0,15,
scooby_state_410150|17|15 15,0,0,0,0,0,0,0,0,0,0,0,0,0,0,15,
scooby_state_40ee3c|38|16 15,0,0,0,0,0,0,0,0,0,0,0,0,0,0,15,
scooby_state_40f138|12|1 15,0,0,0,0,0,0,0,0,0,0,0,0,0,0,15,
scooby_state_40ed43|8|-14 15,0,0,0,0,0,0,0,0,0,0,0,0,0,0,15,
scooby_state_40f40b|45|15 15,0,0,0,0,0,0,0,0,0,0,0,0,0,0,15,
scooby_state_410b15|44|-15 15,0,0,0,0,0,0,0,0,0,0,0,0,0,0,15,
scooby_state_40ed43|1|-14 15,0,0,0,0,0,0,0,0,0,0,0,0,0,0,15,
scooby_state_40ebbc|55|15 15,0,0,0,0,0,0,0,0,0,0,0,0,0,0,15,
scooby_state_40e6ba|40|1 15,0,0,0,0,0,0,0,0,0,0,0,0,0,0,15,
scooby_state_40fa3f|4|-14 15,0,0,0,0,0,0,0,0,0,0,0,0,0,0,15,
scooby_state_40e74d|60|1 15,0,0,0,0,0,0,0,0,0,0,0,0,0,0,15,
scooby_state_40f14a|34|-15 15,0,0,0,0,0,0,0,0,0,0,0,0,0,0,15,
scooby_state_40eeff|17|1 15,0,0,0,0,0,0,0,0,0,0,0,0,0,0,15,
scooby_state_40ee0c|45|-15 15,0,0,0,0,0,0,0,0,0,0,0,0,0,0,15,
scooby_state_40f138|8|1 15,0,0,0,0,0,0,0,0,0,0,0,0,0,0,15,
scooby_state_40fa3f|14|-14 15,0,0,0,0,0,0,0,0,0,0,0,0,0,0,15,
scooby_state_40ed3e|56|16 15,0,0,0,0,0,0,0,0,0,0,0,0,0,0,15,
scooby_state_40ea8a|49|16 15,0,0,0,0,0,0,0,0,0,0,0,0,0,0,15,
scooby_state_40ea15|4|-30 15,0,0,0,0,0,0,0,0,0,0,0,0,0,0,15,
scooby_state_40ebc2|23|-30 14,0,0,0,0,0,0,0,0,1,0,0,0,0,0,15,
scooby_state_40e944|9|-14 15,0,0,0,0,0,0,0,0,0,0,0,0,0,0,15,
scooby_state_40edf0|13|1 15,0,0,0,0,0,0,0,0,0,0,0,0,0,0,15,
scooby_state_410aec|11|1 15,0,0,0,0,0,0,0,0,0,0,0,0,0,0,15,
scooby_state_40ed43|9|-14 15,0,0,0,0,0,0,0,0,0,0,0,0,0,0,15,
scooby_state_40ecc6|8|-30 15,0,0,0,0,0,0,0,0,0,0,0,0,0,0,15,
scooby_state_40e76c|53|1 15,0,0,0,0,0,0,0,0,0,0,0,0,0,0,15,
scooby_state_40ea0b|28|15 15,0,0,0,0,0,0,0,0,0,0,0,0,0,0,15,
scooby_state_40e8f4|42|15 15,0,0,0,0,0,0,0,0,0,0,0,0,0,0,15,
scooby_state_40e8fa|12|-30 15,0,0,0,0,0,0,0,0,0,0,0,0,0,0,15,
scooby_state_40e944|11|-14 15,0,0,0,0,0,0,0,0,0,0,0,0,0,0,15,
scooby_state_40ebae|49|15 15,0,0,0,0,0,0,0,0,0,0,0,0,0,0,15,
scooby_state_40ee10|48|-15 15,0,0,0,0,0,0,0,0,0,0,0,0,0,0,15,
scooby_state_40e6f4|51|1 15,0,0,0,0,0,0,0,0,0,0,0,0,0,0,15,
scooby_state_40f439|32|-30 15,0,0,0,0,0,0,0,0,0,0,0,0,0,0,15,
scooby_state_40f14a|37|-15 15,0,0,0,0,0,0,0,0,0,0,0,0,0,0,15,
scooby_state_40ea11|1|-30 15,0,0,0,0,0,0,0,0,0,0,0,0,0,0,15,
scooby_state_410aec|62|15 15,0,0,0,0,0,0,0,0,0,0,0,0,0,0,15,
scooby_state_40ee3c|41|16 14,0,0,0,0,0,0,0,0,1,0,0,0,0,0,15,
scooby_state_40e67b|43|1 15,0,0,0,0,0,0,0,0,0,0,0,0,0,0,15,
scooby_state_40f146|29|-30 15,0,0,0,0,0,0,0,0,0,0,0,0,0,0,15,
scooby_state_40ea0b|38|15 15,0,0,0,0,0,0,0,0,0,0,0,0,0,0,15,
scooby_state_40ee3c|44|16 15,0,0,0,0,0,0,0,0,0,0,0,0,0,0,15,
scooby_state_40e6ba|52|1 15,0,0,0,0,0,0,0,0,0,0,0,0,0,0,15,
scooby_state_40f439|19|-30 15,0,0,0,0,0,0,0,0,0,0,0,0,0,0,15,
scooby_state_40e94a|28|16 15,0,0,0,0,0,0,0,0,0,0,0,0,0,0,15,
scooby_state_40e61b|28|1 15,0,0,0,0,0,0,0,0,0,0,0,0,0,0,15,
scooby_state_40ee0c|49|1 15,0,0,0,0,0,0,0,0,0,0,0,0,0,0,15,
scooby_state_40e8f4|40|15 15,0,0,0,0,0,0,0,0,0,0,0,0,0,0,15,
scooby_state_40e76c|54|1 15,0,0,0,0,0,0,0,0,0,0,0,0,0,0,15,
scooby_state_40e8fa|10|-30 15,0,0,0,0,0,0,0,0,0,0,0,0,0,0,15,
scooby_state_410b15|49|1 15,0,0,0,0,0,0,0,0,0,0,0,0,0,0,15,
scooby_state_410457|7|-14 15,0,0,0,0,0,0,0,0,0,0,0,0,0,0,15,
scooby_state_40eeff|32|1 15,0,0,0,0,0,0,0,0,0,0,0,0,0,0,15,
scooby_state_40ea15|0|-30 15,0,0,0,0,0,0,0,0,0,0,0,0,0,0,15,
scooby_state_40ec60|18|16 15,0,0,0,0,0,0,0,0,0,0,0,0,0,0,15,
scooby_state_40e74d|0|0 15,0,0,0,0,0,0,0,0,0,0,0,0,0,0,15,
scooby_state_40ebc6|34|-15 15,0,0,0,0,0,0,0,0,0,0,0,0,0,0,15,
scooby_state_40eb08|2|1 15,0,0,0,0,0,0,0,0,0,0,0,0,0,0,15,
scooby_state_40e6f4|52|1 15,0,0,0,0,0,0,0,0,0,0,0,0,0,0,15,
scooby_state_40e725|46|1 15,0,0,0,0,0,0,0,0,0,0,0,0,0,0,15,
scooby_state_40e6f4|55|1 15,0,0,0,0,0,0,0,0,0,0,0,0,0,0,15,
scooby_state_40f4a5|10|1 15,0,0,0,0,0,0,0,0,0,0,0,0,0,0,15,
scooby_state_40e7ab|59|1 15,0,0,0,0,0,0,0,0,0,0,0,0,0,0,15,
scooby_state_40e6a3|46|1 15,0,0,0,0,0,0,0,0,0,0,0,0,0,0,15,
scooby_state_410aec|2|1 15,0,0,0,0,0,0,0,0,0,0,0,0,0,0,15,
scooby_state_40ee0c|50|1 15,0,0,0,0,0,0,0,0,0,0,0,0,0,0,15,
scooby_state_40fa3f|63|16 15,0,0,0,0,0,0,0,0,0,0,0,0,0,0,15,
scooby_state_410150|29|15 15,0,0,0,0,0,0,0,0,0,0,0,0,0,0,15,
scooby_state_40ebae|57|15 15,0,0,0,0,0,0,0,0,0,0,0,0,0,0,15,
scooby_state_40f40b|55|15 15,0,0,0,0,0,0,0,0,0,0,0,0,0,0,15,
scooby_state_40eb0e|36|-15 15,0,0,0,0,0,0,0,0,0,0,0,0,0,0,15,
scooby_state_40ea8a|51|16 15,0,0,0,0,0,0,0,0,0,0,0,0,0,0,15,
scooby_state_40e725|50|1 15,0,0,0,0,0,0,0,0,0,0,0,0,0,0,15,
scooby_state_40e9fd|33|15 15,0,0,0,0,0,0,0,0,0,0,0,0,0,0,15,
scooby_state_40e944|12|-14 15,0,0,0,0,0,0,0,0,0,0,0,0,0,0,15,
scooby_state_40e94a|20|16 15,0,0,0,0,0,0,0,0,0,0,0,0,0,0,15,
scooby_state_40eb60|49|16 15,0,0,0,0,0,0,0,0,0,0,0,0,0,0,15,
scooby_state_40ecc6|61|1 15,0,0,0,0,0,0,0,0,0,0,0,0,0,0,15,
scooby_state_40f4a5|11|1 15,0,0,0,0,0,0,0,0,0,0,0,0,0,0,15,
scooby_state_410aec|13|1 15,0,0,0,0,0,0,0,0,0,0,0,0,0,0,15,
scooby_state_40ebae|45|15 15,0,0,0,0,0,0,0,0,0,0,0,0,0,0,15,
scooby_state_40ebbc|57|15 15,0,0,0,0,0,0,0,0,0,0,0,0,0,0,15,
scooby_state_40ea0b|32|15 15,0,0,0,0,0,0,0,0,0,0,0,0,0,0,15,
scooby_state_410aec|61|15 15,0,0,0,0,0,0,0,0,0,0,0,0,0,0,15,
scooby_state_40e5e1|30|1 15,0,0,0,0,0,0,0,0,0,0,0,0,0,0,15,
scooby_state_40ebc6|29|-30 15,0,0,0,0,0,0,0,0,0,0,0,0,0,0,15,
scooby_state_40eb08|9|1 14,0,0,0,0,0,0,0,0,0,1,0,0,0,0,15,
scooby_state_40ed43|5|-14 15,0,0,0,0,0,0,0,0,0,0,0,0,0,0,15,
scooby_state_40e67b|38|1 15,0,0,0,0,0,0,0,0,0,0,0,0,0,0,15,
scooby_state_40e6f4|57|1 15,0,0,0,0,0,0,0,0,0,0,0,0,0,0,15,
scooby_state_40ebc6|28|-30 15,0,0,0,0,0,0,0,0,0,0,0,0,0,0,15,
scooby_state_40eb60|55|16 15,0,0,0,0,0,0,0,0,0,0,0,0,0,0,15,
scooby_state_40eb55|41|16 15,0,0,0,0,0,0,0,0,0,0,0,0,0,0,15,
scooby_state_40ee0c|39|-15 15,0,0,0,0,0,0,0,0,0,0,0,0,0,0,15,
scooby_state_40f14a|36|-15 15,0,0,0,0,0,0,0,0,0,0,0,0,0,0,15,
scooby_state_40f12a|62|15 15,0,0,0,0,0,0,0,0,0,0,0,0,0,0,15,
scooby_state_40e6a3|49|1 15,0,0,0,0,0,0,0,0,0,0,0,0,0,0,15,
scooby_state_40f4a5|22|1 15,0,0,0,0,0,0,0,0,0,0,0,0,0,0,15,
scooby_state_40eb60|48|16 15,0,0,0,0,0,0,0,0,0,0,0,0,0,0,15,
scooby_state_40ebc2|20|-30 15,0,0,0,0,0,0,0,0,0,0,0,0,0,0,15,
scooby_state_40e794|60|1 15,0,0,0,0,0,0,0,0,0,0,0,0,0,0,15,
scooby_state_40e6a3|55|1 15,0,0,0,0,0,0,0,0,0,0,0,0,0,0,15,
scooby_state_40e5e1|34|1 15,0,0,0,0,0,0,0,0,0,0,0,0,0,0,15,
scooby_state_40e67b|36|1 15,0,0,0,0,0,0,0,0,0,0,0,0,0,0,15,
scooby_state_40ef04|33|1 15,0,0,0,0,0,0,0,0,0,0,0,0,0,0,15,
scooby_state_40e725|58|1 15,0,0,0,0,0,0,0,0,0,0,0,0,0,0,15,
scooby_state_40ebc6|30|-30 15,0,0,0,0,0,0,0,0,0,0,0,0,0,0,15,
scooby_state_40ea11|58|1 15,0,0,0,0,0,0,0,0,0,0,0,0,0,0,15,
scooby_state_40f4a5|16|1 14,0,0,0,0,0,0,0,0,0,0,1,0,0,0,15,
scooby_state_40f12a|6|1 15,0,0,0,0,0,0,0,0,0,0,0,0,0,0,15,
scooby_state_40ed3e|61|16 15,0,0,0,0,0,0,0,0,0,0,0,0,0,0,15,
scooby_state_40e94a|30|16 15,0,0,0,0,0,0,0,0,0,0,0,0,0,0,15,
scooby_state_40e725|42|1 15,0,0,0,0,0,0,0,0,0,0,0,0,0,0,15,
scooby_state_40ec9d|35|15 15,0,0,0,0,0,0,0,0,0,0,0,0,0,0,15,
scooby_state_40e61b|30|1 15,0,0,0,0,0,0,0,0,0,0,0,0,0,0,15,
scooby_state_40e725|52|1 15,0,0,0,0,0,0,0,0,0,0,0,0,0,0,15,
scooby_state_40e61b|32|1 15,0,0,0,0,0,0,0,0,0,0,0,0,0,0,15,
scooby_state_40f138|3|1 15,0,0,0,0,0,0,0,0,0,0,0,0,0,0,15,
scooby_state_40e6f4|50|1 15,0,0,0,0,0,0,0,0,0,0,0,0,0,0,15,
scooby_state_40e6f4|54|1 15,0,0,0,0,0,0,0,0,0,0,0,0,0,0,15,
scooby_state_40f14a|43|-15 15,0,0,0,0,0,0,0,0,0,0,0,0,0,0,15,
scooby_state_40e8fa|6|-30 15,0,0,0,0,0,0,0,0,0,0,0,0,0,0,15,
scooby_state_40f12a|63|15 15,0,0,0,0,0,0,0,0,0,0,0,0,0,0,15,
scooby_state_40ec60|11|-14 15,0,0,0,0,0,0,0,0,0,0,0,0,0,0,15,
scooby_state_40f138|11|1 15,0,0,0,0,0,0,0,0,0,0,0,0,0,0,15,
scooby_state_40ea0b|37|15 15,0,0,0,0,0,0,0,0,0,0,0,0,0,0,15,
scooby_state_40f439|29|-30 15,0,0,0,0,0,0,0,0,0,0,0,0,0,0,15,
scooby_state_410b11|32|-30 15,0,0,0,0,0,0,0,0,0,0,0,0,0,0,15,
scooby_state_40e6ba|51|1 15,0,0,0,0,0,0,0,0,0,0,0,0,0,0,15,
scooby_state_40f48d|1|1 15,0,0,0,0,0,0,0,0,0,0,0,0,0,0,15,
scooby_state_410b11|37|-15 15,0,0,0,0,0,0,0,0,0,0,0,0,0,0,15,
scooby_state_410aec|60|15 15,0,0,0,0,0,0,0,0,0,0,0,0,0,0,15,
scooby_state_40ebc2|21|-30 15,0,0,0,0,0,0,0,0,0,0,0,0,0,0,15,
scooby_state_40e67b|34|1 15,0,0,0,0,0,0,0,0,0,0,0,0,0,0,15,
scooby_state_41042d|54|16 15,0,0,0,0,0,0,0,0,0,0,0,0,0,0,15,
scooby_state_40edf0|7|1 15,0,0,0,0,0,0,0,0,0,0,0,0,0,0,15,
scooby_state_410150|21|15 15,0,0,0,0,0,0,0,0,0,0,0,0,0,0,15,
scooby_state_40e65c|44|1 15,0,0,0,0,0,0,0,0,0,0,0,0,0,0,15,
scooby_state_40e74d|62|1 15,0,0,0,0,0,0,0,0,0,0,0,0,0,0,15,
scooby_state_410160|62|1 15,0,0,0,0,0,0,0,0,0,0,0,0,0,0,15,
scooby_state_40ec9d|29|15 15,0,0,0,0,0,0,0,0,0,0,0,0,0,0,15,
scooby_state_40e725|44|1 15,0,0,0,0,0,0,0,0,0,0,0,0,0,0,15,
scooby_state_40ec9d|27|15 15,0,0,0,0,0,0,0,0,0,0,0,0,0,0,15,
scooby_state_40ee10|62|1 15,0,0,0,0,0,0,0,0,0,0,0,0,0,0,15,
scooby_state_40e6a3|56|1 15,0,0,0,0,0,0,0,0,0,0,0,0,0,0,15,
scooby_state_40ebae|59|15 15,0,0,0,0,0,0,0,0,0,0,0,0,0,0,15,
scooby_state_40e94a|29|16 15,0,0,0,0,0,0,0,0,0,0,0,0,0,0,15,
scooby_state_40ee0c|47|-15 15,0,0,0,0,0,0,0,0,0,0,0,0,0,0,15,
scooby_state_40e74d|56|1 15,0,0,0,0,0,0,0,0,0,0,0,0,0,0,15,
scooby_state_40fa3f|6|-14 15,0,0,0,0,0,0,0,0,0,0,0,0,0,0,15,
scooby_state_40ea8a|54|16 15,0,0,0,0,0,0,0,0,0,0,0,0,0,0,15,
scooby_state_410457|62|16 15,0,0,0,0,0,0,0,0,0,0,0,0,0,0,15,
scooby_state_40e67b|39|1 15,0,0,0,0,0,0,0,0,0,0,0,0,0,0,15,
scooby_state_41042d|58|16 15,0,0,0,0,0,0,0,0,0,0,0,0,0,0,15,
scooby_state_40eb08|5|1 15,0,0,0,0,0,0,0,0,0,0,0,0,0,0,15,
scooby_state_40edfe|20|15 15,0,0,0,0,0,0,0,0,0,0,0,0,0,0,15,
scooby_state_40ed43|4|-14 15,0,0,0,0,0,0,0,0,0,0,0,0,0,0,15,
scooby_state_40ebc6|35|-15 15,0,0,0,0,0,0,0,0,0,0,0,0,0,0,15,
scooby_state_40ec60|9|-14 15,0,0,0,0,0,0,0,0,0,0,0,0,0,0,15,
scooby_state_40e94a|23|16 15,0,0,0,0,0,0,0,0,0,0,0,0,0,0,15,
scooby_state_40e8f4|48|15 15,0,0,0,0,0,0,0,0,0,0,0,0,0,0,15,
scooby_state_40eb60|46|16 15,0,0,0,0,0,0,0,0,0,0,0,0,0,0,15,
scooby_state_40ebc6|31|-30 15,0,0,0,0,0,0,0,0,0,0,0,0,0,0,15,
scooby_state_40e76c|0|0 15,0,0,0,0,0,0,0,0,0,0,0,0,0,0,15,
scooby_state_410b15|47|-15 15,0,0,0,0,0,0,0,0,0,0,0,0,0,0,15,
scooby_state_40ebae|53|15 15,0,0,0,0,0,0,0,0,0,0,0,0,0,0,15,
scooby_state_40ea8a|55|16 15,0,0,0,0,0,0,0,0,0,0,0,0,0,0,15,
scooby_state_40e725|56|1 15,0,0,0,0,0,0,0,0,0,0,0,0,0,0,15,
scooby_state_40e94a|16|16 15,0,0,0,0,0,0,0,0,0,0,0,0,0,0,15,
scooby_state_40e8fa|20|-30 15,0,0,0,0,0,0,0,0,0,0,0,0,0,0,15,
scooby_state_40eb0e|40|-15 15,0,0,0,0,0,0,0,0,0,0,0,0,0,0,15,
scooby_state_40f138|10|1 15,0,0,0,0,0,0,0,0,0,0,0,0,0,0,15,
scooby_state_410457|60|16 15,0,0,0,0,0,0,0,0,0,0,0,0,0,0,15,
scooby_state_40f4a5|19|1 15,0,0,0,0,0,0,0,0,0,0,0,0,0,0,15,
scooby_state_40ea0b|40|15 15,0,0,0,0,0,0,0,0,0,0,0,0,0,0,15,
scooby_state_40ebbc|62|15 15,0,0,0,0,0,0,0,0,0,0,0,0,0,0,15,
scooby_state_40e8fa|13|-30 15,0,0,0,0,0,0,0,0,0,0,0,0,0,0,15,
scooby_state_40f14a|42|-15 15,0,0,0,0,0,0,0,0,0,0,0,0,0,0,15,
scooby_state_410afa|13|1 15,0,0,0,0,0,0,0,0,0,0,0,0,0,0,15,
scooby_state_40ea15|8|-30 15,0,0,0,0,0,0,0,0,0,0,0,0,0,0,15,
scooby_state_40ebc6|33|-30 15,0,0,0,0,0,0,0,0,0,0,0,0,0,0,15,
scooby_state_40e794|62|1 15,0,0,0,0,0,0,0,0,0,0,0,0,0,0,15,
scooby_state_40ea11|56|1 15,0,0,0,0,0,0,0,0,0,0,0,0,0,0,15,
scooby_state_40e5e1|40|1 15,0,0,0,0,0,0,0,0,0,0,0,0,0,0,15,
scooby_state_40eb55|39|16 15,0,0,0,0,0,0,0,0,0,0,0,0,0,0,15,
scooby_state_40e8fa|15|-30 15,0,0,0,0,0,0,0,0,0,0,0,0,0,0,15,
scooby_state_40ef04|60|1 15,0,0,0,0,0,0,0,0,0,0,0,0,0,0,15,
scooby_state_40e94a|21|16 15,0,0,0,0,0,0,0,0,0,0,0,0,0,0,15,
scooby_state_40e794|9|1 15,0,0,0,0,0,0,0,0,0,0,0,0,0,0,15,
scooby_state_40f12a|59|15 15,0,0,0,0,0,0,0,0,0,0,0,0,0,0,15,
scooby_state_40eb08|8|1 15,0,0,0,0,0,0,0,0,0,0,0,0,0,0,15,
scooby_state_40e94a|24|16 15,0,0,0,0,0,0,0,0,0,0,0,0,0,0,15,
scooby_state_40e74d|63|1 15,0,0,0,0,0,0,0,0,0,0,0,0,0,0,15,
scooby_state_40e5e1|37|1 15,0,0,0,0,0,0,0,0,0,0,0,0,0,0,15,
scooby_state_40e94a|18|16 15,0,0,0,0,0,0,0,0,0,0,0,0,0,0,15,
scooby_state_40e65c|45|1 15,0,0,0,0,0,0,0,0,0,0,0,0,0,0,15,
scooby_state_40ebae|62|15 15,0,0,0,0,0,0,0,0,0,0,0,0,0,0,15,
scooby_state_41042d|56|16 15,0,0,0,0,0,0,0,0,0,0,0,0,0,0,15,
scooby_state_40e9fd|32|15 15,0,0,0,0,0,0,0,0,0,0,0,0,0,0,15,
scooby_state_40e61b|34|1 15,0,0,0,0,0,0,0,0,0,0,0,0,0,0,15,
scooby_state_40e7ab|63|1 15,0,0,0,0,0,0,0,0,0,0,0,0,0,0,15,
scooby_state_40ec60|15|-14 15,0,0,0,0,0,0,0,0,0,0,0,0,0,0,15,
scooby_state_40e6a3|43|1 15,0,0,0,0,0,0,0,0,0,0,0,0,0,0,15,
scooby_state_40edfe|19|15 15,0,0,0,0,0,0,0,0,0,0,0,0,0,0,15,
scooby_state_40ee0c|44|-15 15,0,0,0,0,0,0,0,0,0,0,0,0,0,0,15,
scooby_state_40ec9d|36|15 15,0,0,0,0,0,0,0,0,0,0,0,0,0,0,15,
scooby_state_40edf0|11|1 15,0,0,0,0,0,0,0,0,0,0,0,0,0,0,15,
scooby_state_410afa|12|1 15,0,0,0,0,0,0,0,0,0,0,0,0,0,0,15,
scooby_state_40f439|25|-30 15,0,0,0,0,0,0,0,0,0,0,0,0,0,0,15,
scooby_state_40e6a3|54|1 15,0,0,0,0,0,0,0,0,0,0,0,0,0,0,15,
scooby_state_40eb60|43|16 15,0,0,0,0,0,0,0,0,0,0,0,0,0,0,15,
scooby_state_410aec|5|1 15,0,0,0,0,0,0,0,0,0,0,0,0,0,0,15,
scooby_state_40eeff|28|1 15,0,0,0,0,0,0,0,0,0,0,0,0,0,0,15,
scooby_state_410afa|7|1 15,0,0,0,0,0,0,0,0,0,0,0,0,0,0,15,
scooby_state_410aec|63|15 15,0,0,0,0,0,0,0,0,0,0,0,0,0,0,15,
scooby_state_40e8f4|54|15 14,0,0,0,1,0,0,0,0,0,0,0,0,0,0,15,
scooby_state_40f40b|50|15 15,0,0,0,0,0,0,0,0,0,0,0,0,0,0,15,
scooby_state_40e9fd|37|15 15,0,0,0,0,0,0,0,0,0,0,0,0,0,0,15,
scooby_state_40f48d|2|1 15,0,0,0,0,0,0,0,0,0,0,0,0,0,0,15,
scooby_state_40ed3e|63|16 15,0,0,0,0,0,0,0,0,0,0,0,0,0,0,15,
scooby_state_40e5e1|32|1 15,0,0,0,0,0,0,0,0,0,0,0,0,0,0,15,
scooby_state_40edf0|14|1 15,0,0,0,0,0,0,0,0,0,0,0,0,0,0,15,
scooby_state_40ea11|59|1 15,0,0,0,0,0,0,0,0,0,0,0,0,0,0,15,
scooby_state_410160|56|1 15,0,0,0,0,0,0,0,0,0,0,0,0,0,0,15,
scooby_state_40ec60|19|16 15,0,0,0,0,0,0,0,0,0,0,0,0,0,0,15,
scooby_state_410b15|43|-15 15,0,0,0,0,0,0,0,0,0,0,0,0,0,0,15,
scooby_state_40eeff|16|1 15,0,0,0,0,0,0,0,0,0,0,0,0,0,0,15,
scooby_state_410457|61|16 15,0,0,0,0,0,0,0,0,0,0,0,0,0,0,15,
scooby_state_40ed43|12|-14 15,0,0,0,0,0,0,0,0,0,0,0,0,0,0,15,
scooby_state_40e9fd|28|15 15,0,0,0,0,0,0,0,0,0,0,0,0,0,0,15,
scooby_state_410457|4|-14 15,0,0,0,0,0,0,0,0,0,0,0,0,0,0,15,
scooby_state_40ed3e|59|16 15,0,0,0,0,0,0,0,0,0,0,0,0,0,0,15,
scooby_state_40e74d|58|1 15,0,0,0,0,0,0,0,0,0,0,0,0,0,0,15,
scooby_state_40ee10|59|1 15,0,0,0,0,0,0,0,0,0,0,0,0,0,0,15,
scooby_state_40e8f4|37|15 15,0,0,0,0,0,0,0,0,0,0,0,0,0,0,15,
scooby_state_40f48d|0|0 15,0,0,0,0,0,0,0,0,0,0,0,0,0,0,15,
scooby_state_40e65c|42|1 15,0,0,0,0,0,0,0,0,0,0,0,0,0,0,15,
scooby_state_40e76c|52|1 15,0,0,0,0,0,0,0,0,0,0,0,0,0,0,15,
scooby_state_410150|20|15 15,0,0,0,0,0,0,0,0,0,0,0,0,0,0,15,
scooby_state_41042d|53|16 15,0,0,0,0,0,0,0,0,0,0,0,0,0,0,15,
scooby_state_40e67b|41|1 15,0,0,0,0,0,0,0,0,0,0,0,0,0,0,15,
scooby_state_40f40b|53|15 15,0,0,0,0,0,0,0,0,0,0,0,0,0,0,15,
scooby_state_40e74d|61|1 15,0,0,0,0,0,0,0,0,0,0,0,0,0,0,15,
scooby_state_40edf0|12|1 15,0,0,0,0,0,0,0,0,0,0,0,0,0,0,15,
scooby_state_40e6f4|53|1 15,0,0,0,0,0,0,0,0,0,0,0,0,0,0,15,
scooby_state_40ea11|55|1 15,0,0,0,0,0,0,0,0,0,0,0,0,0,0,15,
scooby_state_40e74d|59|1 15,0,0,0,0,0,0,0,0,0,0,0,0,0,0,15,
scooby_state_410afa|17|15 15,0,0,0,0,0,0,0,0,0,0,0,0,0,0,15,
scooby_state_40eb60|50|16 15,0,0,0,0,0,0,0,0,0,0,0,0,0,0,15,
scooby_state_410b11|47|-15 15,0,0,0,0,0,0,0,0,0,0,0,0,0,0,15,
scooby_state_40ebae|54|15 15,0,0,0,0,0,0,0,0,0,0,0,0,0,0,15,
scooby_state_40f4a5|14|1 15,0,0,0,0,0,0,0,0,0,0,0,0,0,0,15,
scooby_state_40e944|8|-14 15,0,0,0,0,0,0,0,0,0,0,0,0,0,0,15,
scooby_state_40ea8a|57|16 15,0,0,0,0,0,0,0,0,0,0,0,0,0,0,15,
scooby_state_40ecc6|7|-30 15,0,0,0,0,0,0,0,0,0,0,0,0,0,0,15,
scooby_state_40f138|5|1 15,0,0,0,0,0,0,0,0,0,0,0,0,0,0,15,
scooby_state_40ee10|60|1 15,0,0,0,0,0,0,0,0,0,0,0,0,0,0,15,
scooby_state_40f12a|61|15 15,0,0,0,0,0,0,0,0,0,0,0,0,0,0,15,
scooby_state_40f138|1|1 15,0,0,0,0,0,0,0,0,0,0,0,0,0,0,15,
scooby_state_41042d|57|16 15,0,0,0,0,0,0,0,0,0,0,0,0,0,0,15,
scooby_state_40ee3c|33|16 15,0,0,0,0,0,0,0,0,0,0,0,0,0,0,15,
scooby_state_410afa|8|1 15,0,0,0,0,0,0,0,0,0,0,0,0,0,0,15,
scooby_state_40e5e1|29|1 14,0,0,0,0,0,0,0,0,1,0,0,0,0,0,15,
scooby_state_410160|53|1 15,0,0,0,0,0,0,0,0,0,0,0,0,0,0,15,
scooby_state_40ed3e|6|-14 15,0,0,0,0,0,0,0,0,0,0,0,0,0,0,15,
scooby_state_40e74d|52|1 15,0,0,0,0,0,0,0,0,0,0,0,0,0,0,15,
scooby_state_410b11|39|-15 15,0,0,0,0,0,0,0,0,0,0,0,0,0,0,15,
scooby_state_40ea15|9|-30 15,0,0,0,0,0,0,0,0,0,0,0,0,0,0,15,
scooby_state_40f40b|47|15 15,0,0,0,0,0,0,0,0,0,0,0,0,0,0,15,
scooby_state_410b11|38|-15 15,0,0,0,0,0,0,0,0,0,0,0,0,0,0,15,
scooby_state_40f138|63|15 15,0,0,0,0,0,0,0,0,0,0,0,0,0,0,15,
scooby_state_40ea11|0|-30 15,0,0,0,0,0,0,0,0,0,0,0,0,0,0,15,
scooby_state_40ec60|16|16 15,0,0,0,0,0,0,0,0,0,0,0,0,0,0,15,
scooby_state_40e76c|55|1 15,0,0,0,0,0,0,0,0,0,0,0,0,0,0,15,
scooby_state_40e944|13|-14 15,0,0,0,0,0,0,0,0,0,0,0,0,0,0,15,
scooby_state_40e67b|33|1 15,0,0,0,0,0,0,0,0,0,0,0,0,0,0,15,
scooby_state_40edf0|9|1 15,0,0,0,0,0,0,0,0,0,0,0,0,0,0,15,
scooby_state_40ebc2|18|-30 15,0,0,0,0,0,0,0,0,0,0,0,0,0,0,15,
scooby_state_40e6a3|52|1 15,0,0,0,0,0,0,0,0,0,0,0,0,0,0,15,
scooby_state_40f48d|4|1 15,0,0,0,0,0,0,0,0,0,0,0,0,0,0,15,
scooby_state_40e67b|37|1 15,0,0,0,0,0,0,0,0,0,0,0,0,0,0,15,
scooby_state_40eeff|19|1 15,0,0,0,0,0,0,0,0,0,0,0,0,0,0,15,
[...]
scooby_state_410704|28|1 1,0,0,0,0,0,0,0,0,0,0,0,0,0,0,1,
scooby_state_40f16b|8|-14 1,0,0,0,0,0,0,0,0,0,0,0,0,0,0,1,
scooby_state_40f16b|1|-14 1,0,0,0,0,0,0,0,0,0,0,0,0,0,0,1,
scooby_state_40e4d8|47|-15 1,0,0,0,0,0,0,0,0,0,0,0,0,0,0,1,
scooby_state_40e4eb|32|16 1,0,0,0,0,0,0,0,0,0,0,0,0,0,0,1,
scooby_state_40db38|40|16 1,0,0,0,0,0,0,0,0,0,0,0,0,0,0,1,
scooby_state_40ea11|54|0 1,0,0,0,0,0,0,0,0,0,0,0,0,0,0,1,
scooby_state_40e5cd|13|-14 1,0,0,0,0,0,0,0,0,0,0,0,0,0,0,1,
scooby_state_40ef8a|13|1 1,0,0,0,0,0,0,0,0,0,0,0,0,0,0,1,
scooby_state_40dbc5|30|1 1,0,0,0,0,0,0,0,0,0,0,0,0,0,0,1,
scooby_state_40e4d8|49|1 1,0,0,0,0,0,0,0,0,0,0,0,0,0,0,1,
scooby_state_40db38|26|-15 1,0,0,0,0,0,0,0,0,0,0,0,0,0,0,1,
scooby_state_40e52d|61|2 1,0,0,0,0,0,0,0,0,0,0,0,0,0,0,1,
scooby_state_40e4eb|13|-14 1,0,0,0,0,0,0,0,0,0,0,0,0,0,0,1,
scooby_state_40e4eb|2|-14 1,0,0,0,0,0,0,0,0,0,0,0,0,0,0,1,
scooby_state_40e4eb|35|16 1,0,0,0,0,0,0,0,0,0,0,0,0,0,0,1,
scooby_state_410f83|62|1 1,0,0,0,0,0,0,0,0,0,0,0,0,0,0,1,
scooby_state_40dc1b|4|-14 1,0,0,0,0,0,0,0,0,0,0,0,0,0,0,1,
scooby_state_40e5cd|25|16 1,0,0,0,0,0,0,0,0,0,0,0,0,0,0,1,
scooby_state_40ec1c|58|0 1,0,0,0,0,0,0,0,0,0,0,0,0,0,0,1,
scooby_state_4108c5|35|1 1,0,0,0,0,0,0,0,0,0,0,0,0,0,0,1,
scooby_state_41042d|45|0 1,0,0,0,0,0,0,0,0,0,0,0,0,0,0,1,
scooby_state_40e4eb|24|16 1,0,0,0,0,0,0,0,0,0,0,0,0,0,0,1,
scooby_state_40e5cd|4|-14 1,0,0,0,0,0,0,0,0,0,0,0,0,0,0,1,
scooby_state_40dbc5|17|15 1,0,0,0,0,0,0,0,0,0,0,0,0,0,0,1,
scooby_state_40e5cd|63|16 1,0,0,0,0,0,0,0,0,0,0,0,0,0,0,1,
scooby_state_40e4d8|41|-15 1,0,0,0,0,0,0,0,0,0,0,0,0,0,0,1,
scooby_state_40dc02|48|1 1,0,0,0,0,0,0,0,0,0,0,0,0,0,0,1,
scooby_state_410e48|23|0 1,0,0,0,0,0,0,0,0,0,0,0,0,0,0,1,
scooby_state_40e702|28|1 1,0,0,0,0,0,0,0,0,0,0,0,0,0,0,1,
scooby_state_40e4d8|32|-30 1,0,0,0,0,0,0,0,0,0,0,0,0,0,0,1,
scooby_state_40f300|12|1 1,0,0,0,0,0,0,0,0,0,0,0,0,0,0,1,
scooby_state_40e4eb|22|16 1,0,0,0,0,0,0,0,0,0,0,0,0,0,0,1,
scooby_state_40f12a|54|31 1,0,0,0,0,0,0,0,0,0,0,0,0,0,0,1,
scooby_state_40dc1b|7|-14 1,0,0,0,0,0,0,0,0,0,0,0,0,0,0,1,
scooby_state_40dc1b|57|16 1,0,0,0,0,0,0,0,0,0,0,0,0,0,0,1,
scooby_state_40e6f4|45|0 1,0,0,0,0,0,0,0,0,0,0,0,0,0,0,1,
scooby_state_40e384|14|1 1,0,0,0,0,0,0,0,0,0,0,0,0,0,0,1,
scooby_state_40e4eb|41|16 1,0,0,0,0,0,0,0,0,0,0,0,0,0,0,1,
scooby_state_40e6c0|27|1 1,0,0,0,0,0,0,0,0,0,0,0,0,0,0,1,
scooby_state_410dc0|55|1 1,0,0,0,0,0,0,0,0,0,0,0,0,0,0,1,
scooby_state_40dbc5|48|15 1,0,0,0,0,0,0,0,0,0,0,0,0,0,0,1,
scooby_state_40e4d8|9|-30 1,0,0,0,0,0,0,0,0,0,0,0,0,0,0,1,
scooby_state_410303|12|1 1,0,0,0,0,0,0,0,0,0,0,0,0,0,0,1,
scooby_state_40eb40|45|1 1,0,0,0,0,0,0,0,0,0,0,0,0,0,0,1,
scooby_state_40f942|37|1 1,0,0,0,0,0,0,0,0,0,0,0,0,0,0,1,
scooby_state_40e4d8|39|-15 1,0,0,0,0,0,0,0,0,0,0,0,0,0,0,1,
scooby_state_40e602|24|1 1,0,0,0,0,0,0,0,0,0,0,0,0,0,0,1,
scooby_state_410ac4|43|1 1,0,0,0,0,0,0,0,0,0,0,0,0,0,0,1,
scooby_state_40ea8a|10|1 1,0,0,0,0,0,0,0,0,0,0,0,0,0,0,1,
scooby_state_40db38|51|16 1,0,0,0,0,0,0,0,0,0,0,0,0,0,0,1,
scooby_state_40dbc5|8|1 1,0,0,0,0,0,0,0,0,0,0,0,0,0,0,1,
scooby_state_40e243|9|1 1,0,0,0,0,0,0,0,0,0,0,0,0,0,0,1,
scooby_state_40dc1b|58|16 1,0,0,0,0,0,0,0,0,0,0,0,0,0,0,1,
scooby_state_40f742|29|1 1,0,0,0,0,0,0,0,0,0,0,0,0,0,0,1,
scooby_state_40f052|6|0 1,0,0,0,0,0,0,0,0,0,0,0,0,0,0,1,
scooby_state_40fec2|59|1 1,0,0,0,0,0,0,0,0,0,0,0,0,0,0,1,
scooby_state_40e4eb|58|16 1,0,0,0,0,0,0,0,0,0,0,0,0,0,0,1,
scooby_state_40e105|4|1 1,0,0,0,0,0,0,0,0,0,0,0,0,0,0,1,
scooby_state_40dc1b|12|-14 1,0,0,0,0,0,0,0,0,0,0,0,0,0,0,1,
scooby_state_40dc1b|45|16 1,0,0,0,0,0,0,0,0,0,0,0,0,0,0,1,
scooby_state_40dbc5|28|15 1,0,0,0,0,0,0,0,0,0,0,0,0,0,0,1,
scooby_state_411097|21|-9 1,0,0,0,0,0,0,0,0,0,0,0,0,0,0,1,
scooby_state_40f1c0|7|1 1,0,0,0,0,0,0,0,0,0,0,0,0,0,0,1,
scooby_state_40f48d|63|0 1,0,0,0,0,0,0,0,0,0,0,0,0,0,0,1,
scooby_state_40e206|8|1 1,0,0,0,0,0,0,0,0,0,0,0,0,0,0,1,
scooby_state_40e4eb|30|16 1,0,0,0,0,0,0,0,0,0,0,0,0,0,0,1,
scooby_state_40e4c4|19|1 1,0,0,0,0,0,0,0,0,0,0,0,0,0,0,1,
scooby_state_40e59a|22|-40 1,0,0,0,0,0,0,0,0,0,0,0,0,0,0,1,
scooby_state_411105|4|1 1,0,0,0,0,0,0,0,0,0,0,0,0,0,0,1,
scooby_state_40db38|55|16 1,0,0,0,0,0,0,0,0,0,0,0,0,0,0,1,
scooby_state_410885|34|1 1,0,0,0,0,0,0,0,0,0,0,0,0,0,0,1,
scooby_state_40f102|4|1 1,0,0,0,0,0,0,0,0,0,0,0,0,0,0,1,
scooby_state_40f9c4|39|1 1,0,0,0,0,0,0,0,0,0,0,0,0,0,0,1,
scooby_state_40f1f8|22|16 1,0,0,0,0,0,0,0,0,0,0,0,0,0,0,1,
scooby_state_40dfc2|63|1 1,0,0,0,0,0,0,0,0,0,0,0,0,0,0,1,
scooby_state_40dbc5|55|15 1,0,0,0,0,0,0,0,0,0,0,0,0,0,0,1,
scooby_state_40e94a|13|0 1,0,0,0,0,0,0,0,0,0,0,0,0,0,0,1,
scooby_state_40ee80|58|1 1,0,0,0,0,0,0,0,0,0,0,0,0,0,0,1,
scooby_state_40fc86|50|1 1,0,0,0,0,0,0,0,0,0,0,0,0,0,0,1,
scooby_state_40fac7|43|1 1,0,0,0,0,0,0,0,0,0,0,0,0,0,0,1,
scooby_state_40e5cd|52|16 1,0,0,0,0,0,0,0,0,0,0,0,0,0,0,1,
scooby_state_40e4eb|14|-14 1,0,0,0,0,0,0,0,0,0,0,0,0,0,0,1,
scooby_state_410d02|52|1 1,0,0,0,0,0,0,0,0,0,0,0,0,0,0,1,
scooby_state_40e4eb|47|16 1,0,0,0,0,0,0,0,0,0,0,0,0,0,0,1,
scooby_state_40e4d8|22|-15 1,0,0,0,0,0,0,0,0,0,0,0,0,0,0,1,
scooby_state_40f8c4|35|1 1,0,0,0,0,0,0,0,0,0,0,0,0,0,0,1,
scooby_state_40dbc5|61|15 1,0,0,0,0,0,0,0,0,0,0,0,0,0,0,1,
scooby_state_40e5cd|1|-14 1,0,0,0,0,0,0,0,0,0,0,0,0,0,0,1,
scooby_state_410d46|53|1 1,0,0,0,0,0,0,0,0,0,0,0,0,0,0,1,
scooby_state_40e5ef|15|0 1,0,0,0,0,0,0,0,0,0,0,0,0,0,0,1,
scooby_state_40e588|22|1 1,0,0,0,0,0,0,0,0,0,0,0,0,0,0,1,
scooby_state_40df41|61|1 1,0,0,0,0,0,0,0,0,0,0,0,0,0,0,1,
scooby_state_40ea46|41|1 1,0,0,0,0,0,0,0,0,0,0,0,0,0,0,1,
scooby_state_40f0b7|47|0 1,0,0,0,0,0,0,0,0,0,0,0,0,0,0,1,
scooby_state_40f587|22|1 1,0,0,0,0,0,0,0,0,0,0,0,0,0,0,1,
scooby_state_410344|13|1 1,0,0,0,0,0,0,0,0,0,0,0,0,0,0,1,
scooby_state_40db38|15|-15 1,0,0,0,0,0,0,0,0,0,0,0,0,0,0,1,
scooby_state_40e4d8|3|-15 1,0,0,0,0,0,0,0,0,0,0,0,0,0,0,1,
scooby_state_40ff43|61|1 1,0,0,0,0,0,0,0,0,0,0,0,0,0,0,1,
scooby_state_410484|18|1 1,0,0,0,0,0,0,0,0,0,0,0,0,0,0,1,
scooby_state_40db38|21|16 1,0,0,0,0,0,0,0,0,0,0,0,0,0,0,1,
scooby_state_4110c5|3|1 1,0,0,0,0,0,0,0,0,0,0,0,0,0,0,1,
scooby_state_40e5e1|27|0 1,0,0,0,0,0,0,0,0,0,0,0,0,0,0,1,
scooby_state_40fa3f|61|0 1,0,0,0,0,0,0,0,0,0,0,0,0,0,0,1,
scooby_state_40eb04|44|1 1,0,0,0,0,0,0,0,0,0,0,0,0,0,0,1,
scooby_state_40e500|20|0 1,0,0,0,0,0,0,0,0,0,0,0,0,0,0,1,
scooby_state_40edf0|5|0 1,0,0,0,0,0,0,0,0,0,0,0,0,0,0,1,
scooby_state_411001|0|0 1,0,0,0,0,0,0,0,0,0,0,0,0,0,0,1,
scooby_state_40e76c|47|0 1,0,0,0,0,0,0,0,0,0,0,0,0,0,0,1,
scooby_state_410f43|61|1 1,0,0,0,0,0,0,0,0,0,0,0,0,0,0,1,
scooby_state_40f2c7|11|1 1,0,0,0,0,0,0,0,0,0,0,0,0,0,0,1,
scooby_state_40db82|46|1 1,0,0,0,0,0,0,0,0,0,0,0,0,0,0,1,
scooby_state_40e845|33|1 1,0,0,0,0,0,0,0,0,0,0,0,0,0,0,1,
scooby_state_40e4eb|54|16 1,0,0,0,0,0,0,0,0,0,0,0,0,0,0,1,
scooby_state_40e944|37|1 1,0,0,0,0,0,0,0,0,0,0,0,0,0,0,1,
scooby_state_411286|10|1 1,0,0,0,0,0,0,0,0,0,0,0,0,0,0,1,
scooby_state_40ecc6|55|0 1,0,0,0,0,0,0,0,0,0,0,0,0,0,0,1,
scooby_state_40f980|38|1 1,0,0,0,0,0,0,0,0,0,0,0,0,0,0,1,
scooby_state_40e800|32|1 1,0,0,0,0,0,0,0,0,0,0,0,0,0,0,1,
scooby_state_40f12a|53|14 1,0,0,0,0,0,0,0,0,0,0,0,0,0,0,1,
scooby_state_410588|22|1 1,0,0,0,0,0,0,0,0,0,0,0,0,0,0,1,
scooby_state_40e7ab|53|0 1,0,0,0,0,0,0,0,0,0,0,0,0,0,0,1,
scooby_state_40efc8|63|1 1,0,0,0,0,0,0,0,0,0,0,0,0,0,0,1,
scooby_state_40ea81|42|1 1,0,0,0,0,0,0,0,0,0,0,0,0,0,0,1,
scooby_state_40e745|29|1 1,0,0,0,0,0,0,0,0,0,0,0,0,0,0,1,
scooby_state_40dc1b|17|16 1,0,0,0,0,0,0,0,0,0,0,0,0,0,0,1,
scooby_state_4103c4|15|1 1,0,0,0,0,0,0,0,0,0,0,0,0,0,0,1,
scooby_state_40eb85|46|1 1,0,0,0,0,0,0,0,0,0,0,0,0,0,0,1,
scooby_state_40e4eb|51|16 1,0,0,0,0,0,0,0,0,0,0,0,0,0,0,1,
scooby_state_40f138|61|14 1,0,0,0,0,0,0,0,0,0,0,0,0,0,0,1,
scooby_state_40e982|38|1 1,0,0,0,0,0,0,0,0,0,0,0,0,0,0,1,
scooby_state_40fc08|48|1 1,0,0,0,0,0,0,0,0,0,0,0,0,0,0,1,
scooby_state_40f680|26|1 1,0,0,0,0,0,0,0,0,0,0,0,0,0,0,1,
scooby_state_40f287|10|1 1,0,0,0,0,0,0,0,0,0,0,0,0,0,0,1,
scooby_state_40dbc5|36|15 1,0,0,0,0,0,0,0,0,0,0,0,0,0,0,1,
scooby_state_40ed84|54|1 1,0,0,0,0,0,0,0,0,0,0,0,0,0,0,1,
scooby_state_40fdc1|55|1 1,0,0,0,0,0,0,0,0,0,0,0,0,0,0,1,
scooby_state_40e681|26|1 1,0,0,0,0,0,0,0,0,0,0,0,0,0,0,1,
scooby_state_40dc1b|0|-14 1,0,0,0,0,0,0,0,0,0,0,0,0,0,0,1,
scooby_state_40f781|30|1 1,0,0,0,0,0,0,0,0,0,0,0,0,0,0,1,
scooby_state_410e86|58|1 1,0,0,0,0,0,0,0,0,0,0,0,0,0,0,1,
scooby_state_40f548|21|1 1,0,0,0,0,0,0,0,0,0,0,0,0,0,0,1,
scooby_state_40e0c4|3|1 1,0,0,0,0,0,0,0,0,0,0,0,0,0,0,1,
scooby_state_40f046|1|1 1,0,0,0,0,0,0,0,0,0,0,0,0,0,0,1,
scooby_state_40f14a|31|-15 1,0,0,0,0,0,0,0,0,0,0,0,0,0,0,1,
scooby_state_40e146|5|1 1,0,0,0,0,0,0,0,0,0,0,0,0,0,0,1,
scooby_state_40f0d9|46|-15 1,0,0,0,0,0,0,0,0,0,0,0,0,0,0,1,
scooby_state_410cc1|51|1 1,0,0,0,0,0,0,0,0,0,0,0,0,0,0,1,
scooby_state_40f641|25|1 1,0,0,0,0,0,0,0,0,0,0,0,0,0,0,1,
scooby_state_410bc1|47|1 1,0,0,0,0,0,0,0,0,0,0,0,0,0,0,1,
scooby_state_410b00|44|1 1,0,0,0,0,0,0,0,0,0,0,0,0,0,0,1,
scooby_state_4101c1|7|1 1,0,0,0,0,0,0,0,0,0,0,0,0,0,0,1,
scooby_state_410f83|27|1 1,0,0,0,0,0,0,0,0,0,0,0,0,0,0,1,
scooby_state_40f6c5|27|1 1,0,0,0,0,0,0,0,0,0,0,0,0,0,0,1,
scooby_state_410840|33|1 1,0,0,0,0,0,0,0,0,0,0,0,0,0,0,1,
scooby_state_40f483|18|1 1,0,0,0,0,0,0,0,0,0,0,0,0,0,0,1,
scooby_state_40dac0|43|1 1,0,0,0,0,0,0,0,0,0,0,0,0,0,0,1,
scooby_state_410a46|41|1 1,0,0,0,0,0,0,0,0,0,0,0,0,0,0,1,
scooby_state_410409|16|1 1,0,0,0,0,0,0,0,0,0,0,0,0,0,0,1,
scooby_state_40ed43|53|1 1,0,0,0,0,0,0,0,0,0,0,0,0,0,0,1,
scooby_state_410381|14|1 1,0,0,0,0,0,0,0,0,0,0,0,0,0,0,1,
scooby_state_40e61b|23|0 1,0,0,0,0,0,0,0,0,0,0,0,0,0,0,1,
scooby_state_40dbc5|53|15 1,0,0,0,0,0,0,0,0,0,0,0,0,0,0,1,
scooby_state_40f602|24|1 1,0,0,0,0,0,0,0,0,0,0,0,0,0,0,1,
scooby_state_410685|26|1 1,0,0,0,0,0,0,0,0,0,0,0,0,0,0,1,
scooby_state_410280|10|1 1,0,0,0,0,0,0,0,0,0,0,0,0,0,0,1,
scooby_state_40fe01|56|1 1,0,0,0,0,0,0,0,0,0,0,0,0,0,0,1,
scooby_state_40ffc1|63|1 1,0,0,0,0,0,0,0,0,0,0,0,0,0,0,1,
scooby_state_40e4d8|52|1 1,0,0,0,0,0,0,0,0,0,0,0,0,0,0,1,
scooby_state_410f04|60|1 1,0,0,0,0,0,0,0,0,0,0,0,0,0,0,1,
scooby_state_40dbc5|60|15 1,0,0,0,0,0,0,0,0,0,0,0,0,0,0,1,
scooby_state_40e4d8|44|-15 1,0,0,0,0,0,0,0,0,0,0,0,0,0,0,1,
scooby_state_40e3c7|15|1 1,0,0,0,0,0,0,0,0,0,0,0,0,0,0,1,
scooby_state_40e285|10|1 1,0,0,0,0,0,0,0,0,0,0,0,0,0,0,1,
scooby_state_40e1c2|7|1 1,0,0,0,0,0,0,0,0,0,0,0,0,0,0,1,
scooby_state_40e944|5|0 1,0,0,0,0,0,0,0,0,0,0,0,0,0,0,1,
scooby_state_410086|2|1 1,0,0,0,0,0,0,0,0,0,0,0,0,0,0,1,
scooby_state_40e182|6|1 1,0,0,0,0,0,0,0,0,0,0,0,0,0,0,1,
scooby_state_40dd85|54|1 1,0,0,0,0,0,0,0,0,0,0,0,0,0,0,1,
scooby_state_40dc42|49|1 1,0,0,0,0,0,0,0,0,0,0,0,0,0,0,1,
scooby_state_40e5cd|2|-14 1,0,0,0,0,0,0,0,0,0,0,0,0,0,0,1,
scooby_state_40dbc5|47|1 1,0,0,0,0,0,0,0,0,0,0,0,0,0,0,1,
scooby_state_40db46|45|1 1,0,0,0,0,0,0,0,0,0,0,0,0,0,0,1,
scooby_state_40e5dc|30|0 1,0,0,0,0,0,0,0,0,0,0,0,0,0,0,1,
scooby_state_40dc1b|24|16 1,0,0,0,0,0,0,0,0,0,0,0,0,0,0,1,
scooby_state_411306|12|1 1,0,0,0,0,0,0,0,0,0,0,0,0,0,0,1,
scooby_state_40dd45|53|1 1,0,0,0,0,0,0,0,0,0,0,0,0,0,0,1,
scooby_state_40f07a|5|-1 1,0,0,0,0,0,0,0,0,0,0,0,0,0,0,1,
scooby_state_40db38|3|-14 1,0,0,0,0,0,0,0,0,0,0,0,0,0,0,1,
scooby_state_40f0b2|39|0 1,0,0,0,0,0,0,0,0,0,0,0,0,0,0,1,
scooby_state_40f1c0|30|15 1,0,0,0,0,0,0,0,0,0,0,0,0,0,0,1,
scooby_state_40ec41|49|1 1,0,0,0,0,0,0,0,0,0,0,0,0,0,0,1,
scooby_state_40f701|28|1 1,0,0,0,0,0,0,0,0,0,0,0,0,0,0,1,
scooby_state_40f5c2|23|1 1,0,0,0,0,0,0,0,0,0,0,0,0,0,0,1,
scooby_state_40db38|13|-14 1,0,0,0,0,0,0,0,0,0,0,0,0,0,0,1,
scooby_state_410444|17|1 1,0,0,0,0,0,0,0,0,0,0,0,0,0,0,1,
scooby_state_40f403|16|1 1,0,0,0,0,0,0,0,0,0,0,0,0,0,0,1,
scooby_state_40edc0|55|1 1,0,0,0,0,0,0,0,0,0,0,0,0,0,0,1,
scooby_state_40e53f|62|1 1,0,0,0,0,0,0,0,0,0,0,0,0,0,0,1,
scooby_state_40dbc5|50|15 1,0,0,0,0,0,0,0,0,0,0,0,0,0,0,1,
scooby_state_410b45|45|1 1,0,0,0,0,0,0,0,0,0,0,0,0,0,0,1,
scooby_state_40fe43|57|1 1,0,0,0,0,0,0,0,0,0,0,0,0,0,0,1,
scooby_state_40e8c1|35|1 1,0,0,0,0,0,0,0,0,0,0,0,0,0,0,1,
scooby_state_410457|53|0 1,0,0,0,0,0,0,0,0,0,0,0,0,0,0,1,
scooby_state_40fa87|42|1 1,0,0,0,0,0,0,0,0,0,0,0,0,0,0,1,
scooby_state_40ec07|48|1 1,0,0,0,0,0,0,0,0,0,0,0,0,0,0,1,
scooby_state_410980|38|1 1,0,0,0,0,0,0,0,0,0,0,0,0,0,0,1,
scooby_state_40fd43|53|1 1,0,0,0,0,0,0,0,0,0,0,0,0,0,0,1,
scooby_state_40f886|34|1 1,0,0,0,0,0,0,0,0,0,0,0,0,0,0,1,
scooby_state_40fcc3|51|1 1,0,0,0,0,0,0,0,0,0,0,0,0,0,0,1,
scooby_state_4110fd|39|-15 1,0,0,0,0,0,0,0,0,0,0,0,0,0,0,1,
scooby_state_40fb48|45|1 1,0,0,0,0,0,0,0,0,0,0,0,0,0,0,1,
scooby_state_40e725|41|0 1,0,0,0,0,0,0,0,0,0,0,0,0,0,0,1,
scooby_state_40fb09|44|1 1,0,0,0,0,0,0,0,0,0,0,0,0,0,0,1,
scooby_state_40e4eb|43|16 1,0,0,0,0,0,0,0,0,0,0,0,0,0,0,1,
scooby_state_40eaa6|61|15 1,0,0,0,0,0,0,0,0,0,0,0,0,0,0,1,
scooby_state_40fa02|40|1 1,0,0,0,0,0,0,0,0,0,0,0,0,0,0,1,
scooby_state_40f443|17|1 1,0,0,0,0,0,0,0,0,0,0,0,0,0,0,1,
scooby_state_411246|9|1 1,0,0,0,0,0,0,0,0,0,0,0,0,0,0,1,
scooby_state_40f903|36|1 1,0,0,0,0,0,0,0,0,0,0,0,0,0,0,1,
scooby_state_40f080|39|-1 1,0,0,0,0,0,0,0,0,0,0,0,0,0,0,1,
scooby_state_40db38|23|-15 1,0,0,0,0,0,0,0,0,0,0,0,0,0,0,1,
scooby_state_411013|29|1 1,0,0,0,0,0,0,0,0,0,0,0,0,0,0,1,

scooby_action_0_deg_dist 0,4,0,0,0,0,0,0,0,0,0,0,0,0,0,0,
scooby_action_4_deg_dist 0,9,0,0,0,0,0,0,0,0,0,0,0,0,0,0,
scooby_action_3_deg_dist 0,11,0,0,0,0,0,0,0,0,0,0,0,0,0,0,
scooby_action_32_deg_dist 0,9,0,0,0,0,0,0,0,0,0,0,0,0,0,0,
scooby_action_5_deg_dist 0,6,0,0,0,0,0,0,0,0,0,0,0,0,0,0,
scooby_action_1_deg_dist 0,2265,1035,0,2870,0,56529,0,0,0,0,0,0,0,0,0,
scooby_action_30_deg_dist 0,10,0,0,0,0,0,0,0,0,0,0,0,0,0,0,
scooby_action_-3_deg_dist 0,3,0,0,0,0,0,0,0,0,0,0,0,0,0,0,
scooby_action_10_deg_dist 0,13,0,0,0,0,0,0,0,0,0,0,0,0,0,0,
scooby_action_-1_deg_dist 0,5,0,0,0,0,0,0,0,0,0,0,0,0,0,0,
scooby_action_23_deg_dist 0,8,0,0,0,0,0,0,0,0,0,0,0,0,0,0,
scooby_action_-6_deg_dist 0,3,0,0,0,0,0,0,0,0,0,0,0,0,0,0,
scooby_action_11_deg_dist 0,8,0,0,0,0,0,0,0,0,0,0,0,0,0,0,
scooby_action_22_deg_dist 0,10,0,0,0,0,0,0,0,0,0,0,0,0,0,0,
scooby_action_12_deg_dist 0,6,0,0,0,0,0,0,0,0,0,0,0,0,0,0,

scooby_track_called 62804
scooby_track_same_address 26
scooby_track_evict 62522

scooby_reward_demand_called 62804
scooby_reward_demand_pt_not_found 2032
scooby_reward_demand_pt_found 60772
scooby_reward_demand_pt_found_total 60772
scooby_reward_demand_has_reward 0
scooby_reward_train_called 899
scooby_reward_assign_reward_called 62715
scooby_reward_no_pref 4
scooby_reward_incorrect 895
scooby_reward_correct_untimely 58507
scooby_reward_correct_timely 2265
scooby_reward_out_of_bounds 1044
scooby_reward_tracker_hit 0

scooby_reward_none_low_bw 4
scooby_reward_none_high_bw 0
scooby_reward_incorrect_low_bw 895
scooby_reward_incorrect_high_bw 0
scooby_reward_correct_untimely_low_bw 58507
scooby_reward_correct_untimely_high_bw 0
scooby_reward_correct_timely_low_bw 2265
scooby_reward_correct_timely_high_bw 0
scooby_reward_out_of_bounds_low_bw 1044
scooby_reward_out_of_bounds_high_bw 0
scooby_reward_tracker_hit_low_bw 0
scooby_reward_tracker_hit_high_bw 0

scooby_reward_1 0,832,58497,2264,1025,0,
scooby_reward_3 0,1,9,1,0,0,
scooby_reward_4 0,8,0,0,1,0,
scooby_reward_5 0,6,0,0,0,0,
scooby_reward_10 0,10,0,0,3,0,
scooby_reward_11 0,7,0,0,1,0,
scooby_reward_12 0,4,0,0,2,0,
scooby_reward_22 0,10,0,0,0,0,
scooby_reward_23 0,3,0,0,3,0,
scooby_reward_30 0,3,0,0,6,0,
scooby_reward_32 0,5,1,0,3,0,
scooby_reward_-1 0,0,0,0,0,0,
scooby_reward_-3 0,3,0,0,0,0,
scooby_reward_-6 0,3,0,0,0,0,
scooby_reward_0 4,0,0,0,0,0,

scooby_train_called 62521
scooby_train_compute_reward 899

scooby_register_fill_called 29660
scooby_register_fill_set 2308
scooby_register_fill_set_total 2308

scooby_register_prefetch_hit_called 278763
scooby_register_prefetch_hit_set 55928
scooby_register_prefetch_hit_set_total 55928

scooby_pref_issue_scooby 334273

learning_engine_featurewise.action.called 62804
learning_engine_featurewise.action.explore 102
learning_engine_featurewise.action.exploit 62702
learning_engine_featurewise.action.fallback 0
learning_engine_featurewise.action.dyn_fallback_saved_bw 0
learning_engine_featurewise.action.dyn_fallback_saved_bw_acc 1254
learning_engine_featurewise.action.index_1_explored 7
learning_engine_featurewise.action.index_1_exploited 62692
learning_engine_featurewise.action.index_3_explored 9
learning_engine_featurewise.action.index_3_exploited 2
learning_engine_featurewise.action.index_4_explored 8
learning_engine_featurewise.action.index_4_exploited 1
learning_engine_featurewise.action.index_5_explored 5
learning_engine_featurewise.action.index_5_exploited 1
learning_engine_featurewise.action.index_10_explored 12
learning_engine_featurewise.action.index_10_exploited 1
learning_engine_featurewise.action.index_11_explored 7
learning_engine_featurewise.action.index_11_exploited 1
learning_engine_featurewise.action.index_12_explored 5
learning_engine_featurewise.action.index_12_exploited 1
learning_engine_featurewise.action.index_22_explored 9
learning_engine_featurewise.action.index_22_exploited 1
learning_engine_featurewise.action.index_23_explored 6
learning_engine_featurewise.action.index_23_exploited 2
learning_engine_featurewise.action.index_30_explored 10
learning_engine_featurewise.action.index_30_exploited 0
learning_engine_featurewise.action.index_32_explored 9
learning_engine_featurewise.action.index_32_exploited 0
learning_engine_featurewise.action.index_-1_explored 5
learning_engine_featurewise.action.index_-1_exploited 0
learning_engine_featurewise.action.index_-3_explored 3
learning_engine_featurewise.action.index_-3_exploited 0
learning_engine_featurewise.action.index_-6_explored 3
learning_engine_featurewise.action.index_-6_exploited 0
learning_engine_featurewise.action.index_0_explored 4
learning_engine_featurewise.action.index_0_exploited 0
learning_engine_featurewise.learn.called 62521
learning_engine_featurewise.learn.su_skip_PC 0
learning_engine_featurewise.learn.su_skip_PC_Delta 0

learning_engine_featurewise.q_value_histogram.bucket_0 0
learning_engine_featurewise.q_value_histogram.bucket_1 0
learning_engine_featurewise.q_value_histogram.bucket_2 0
learning_engine_featurewise.q_value_histogram.bucket_3 0
learning_engine_featurewise.q_value_histogram.bucket_4 1925
learning_engine_featurewise.q_value_histogram.bucket_5 4030
learning_engine_featurewise.q_value_histogram.bucket_6 56747
learning_engine_featurewise.q_value_histogram.bucket_7 0

learning_engine_featurewise.consensus.total 62702
learning_engine_featurewise.consensus.feature_align_PC 62379
learning_engine_featurewise.consensus.feature_align_PC_ratio 0.99
learning_engine_featurewise.consensus.feature_align_PC_Delta 62699
learning_engine_featurewise.consensus.feature_align_PC_Delta_ratio 1.00
learning_engine_featurewise.consensus.feature_align_all 62376
learning_engine_featurewise.consensus.feature_align_all_ratio 0.99

learning_engine_featurewise.feature_PC_min_weight 1000000.00000000
learning_engine_featurewise.feature_PC_max_weight 0.00000000
learning_engine_featurewise.feature_PC_Delta_min_weight 1000000.00000000
learning_engine_featurewise.feature_PC_Delta_max_weight 0.00000000
unique_pcs 347
unique_pages 522
unique_trigger_pcs 65
total_bitmaps_seen 0
unique_bitmaps_seen 0

scooby_bw_epochs 75624
scooby_bw_level_0 73387
scooby_bw_level_1 1460
scooby_bw_level_2 544
scooby_bw_level_3 233

scooby_ipc_epochs 0
scooby_ipc_level_0 0
scooby_ipc_level_1 0
scooby_ipc_level_2 0
scooby_ipc_level_3 0

scooby_cache_acc_epochs 12358
scooby_cache_acc_level_0 38
scooby_cache_acc_level_1 384
scooby_cache_acc_level_2 756
scooby_cache_acc_level_3 1331
scooby_cache_acc_level_4 1444
scooby_cache_acc_level_5 973
scooby_cache_acc_level_6 1500
scooby_cache_acc_level_7 1216
scooby_cache_acc_level_8 1167
scooby_cache_acc_level_9 3549

Channel_0_RQ_row_buffer_hit 12575
Channel_0_RQ_row_buffer_miss 19824
Channel_0_WQ_row_buffer_hit 21
Channel_0_WQ_row_buffer_miss 287
Channel_0_WQ_full 0
Channel_0_dbus_congested 6497

avg_congested_cycle 9

DRAM_bw_pochs 75624
DRAM_bw_level_0 73387
DRAM_bw_level_1 1460
DRAM_bw_level_2 544
DRAM_bw_level_3 233
