Original cmd-> /cluster/home/vlnitu/CA-Lab4-24-vlnitu/Pythia/bin/perceptron-no-multi-no-ship-1core --warmup_instructions=1000000 --simulation_instructions=10000000 --l2c_prefetcher_types=scooby --config=/cluster/home/vlnitu/CA-Lab4-24-vlnitu/Pythia/config/pythia.ini --mail-type=BEGIN,END  -traces /cluster/home/vlnitu/CA-Lab4-24-vlnitu/Pythia/traces/437.leslie3d-134B.champsimtrace.xz
*************************************************
   ChampSim Multicore Out-of-Order Simulator
   Last compiled: Nov 19 2024 20:10:11
*************************************************
parsing config file: /cluster/home/vlnitu/CA-Lab4-24-vlnitu/Pythia/config/pythia.ini
unable to parse section: , name: mail-type, value: BEGIN,END

trace_0 /cluster/home/vlnitu/CA-Lab4-24-vlnitu/Pythia/traces/437.leslie3d-134B.champsimtrace.xz
adding L2C_PREFETCHER: Scooby
Initialize SHIP state
warmup_instructions 1000000
simulation_instructions 10000000
champsim_seed 218
measure_ipc 0
measure_ipc_epoch 1000
measure_dram_bw 1
measure_dram_bw_epoch 256
measure_cache_acc 1
measure_cache_acc_epoch 1024
l1d_perfect 0
l2c_perfect 0
llc_perfect 0
l1d_semi_perfect 0
l2c_semi_perfect 0
llc_semi_perfect 0
semi_perfect_cache_page_buffer_size 64

num_cpus 1
cpu_freq 4000
dram_io_freq 2400
page_size 4096
block_size 64
max_read_per_cycle 8
max_fill_per_cycle 1
dram_channels 1
log2_dram_channels 0
dram_ranks 1
dram_banks 8
dram_rows 65536
dram_columns 128
dram_row_size 8
dram_size 4096
dram_pages 1048576

fetch_width 6
decode_width 6
exec_width 4
lq_width 2
sq_width 2
retire_width 4
scheduler_size 128
branch_mispredict_penalty 20
rob_size 256
lq_size 72
sq_size 56
num_instr_destinations_sparc 4
num_instr_destinations 2
num_instr_sources 4

itlb_set 16
itlb_way 8
itlb_rq_size 16
itlb_wq_size 16
itlb_pq_size 0
itlb_mshr_size 8
itlb_latency 1

dtlb_set 16
dtlb_way 4
dtlb_rq_size 16
dtlb_wq_size 16
dtlb_pq_size 0
dtlb_mshr_size 8
dtlb_latency 1

stlb_set 128
stlb_way 12
stlb_rq_size 32
stlb_wq_size 32
stlb_pq_size 0
stlb_mshr_size 16
stlb_latency 8

l1i_size 32
l1i_set 64
l1i_way 8
l1i_rq_size 64
l1i_wq_size 64
l1i_pq_size 8
l1i_mshr_size 8
l1i_latency 1

l1d_size 32
l1d_set 64
l1d_way 8
l1d_rq_size 64
l1d_wq_size 64
l1d_pq_size 8
l1d_mshr_size 16
l1d_latency 4

l2c_size 256
l2c_set 512
l2c_way 8
l2c_rq_size 32
l2c_wq_size 32
l2c_pq_size 32
l2c_mshr_size 32
l2c_latency 10

llc_size 2048
llc_set 2048
llc_way 16
llc_rq_size 32
llc_wq_size 32
llc_pq_size 32
llc_mshr_size 64
llc_latency 20

dram_channel_width 8
dram_wq_size 64
dram_rq_size 64
tRP 15
tRCD 15
tCAS 12.5
dram_dbus_turn_around_time 30
dram_write_high_wm 56
dram_write_low_wm 48
min_dram_writes_per_switch 16
dram_mtps 2400
dram_dbus_return_time 13

scooby_alpha 0.0065088
scooby_gamma 0.556301
scooby_epsilon 0.00182284
scooby_state_num_bits 10
scooby_max_states 1024
scooby_seed 200
scooby_policy EGreedy
scooby_learning_type SARSA
scooby_actions 1,3,4,5,10,11,12,22,23,30,32,-1,-3,-6,0,
scooby_max_actions 15
scooby_pt_size 256
scooby_st_size 64
scooby_max_pcs 5
scooby_max_offsets 5
scooby_max_deltas 5
scooby_reward_none -4
scooby_reward_incorrect -8
scooby_reward_correct_untimely 12
scooby_reward_correct_timely 20
scooby_brain_zero_init 0
scooby_enable_reward_all 0
scooby_enable_track_multiple 0
scooby_enable_reward_out_of_bounds 1
scooby_reward_out_of_bounds -12
scooby_state_type 1
scooby_state_hash_type 11
scooby_access_debug 0
scooby_print_access_debug 0
scooby_print_access_debug_pc deadbeef
scooby_print_access_debug_pc_count 0
scooby_print_trace 0
scooby_enable_state_action_stats 1
scooby_enable_reward_tracker_hit 0
scooby_reward_tracker_hit -2
scooby_enable_featurewise_engine 1
scooby_pref_degree 1
scooby_enable_dyn_degree 1
scooby_max_to_avg_q_thresholds 0.5,1,2,
scooby_dyn_degrees 1,2,4,4,
scooby_multi_deg_select_type 2
scooby_last_pref_offset_conf_thresholds 1,3,8,
scooby_dyn_degrees_type2 1,2,4,6,
scooby_action_tracker_size 2
scooby_high_bw_thresh 4
scooby_enable_hbw_reward 1
scooby_reward_hbw_correct_timely 20
scooby_reward_hbw_correct_untimely 12
scooby_reward_hbw_incorrect -14
scooby_reward_hbw_none -2
scooby_reward_hbw_out_of_bounds -12
scooby_reward_hbw_tracker_hit -2
scooby_last_pref_offset_conf_thresholds_hbw 1,3,8,
scooby_dyn_degrees_type2_hbw 1,2,4,6,

le_enable_trace 0
le_trace_interval 0
le_trace_file_name 
le_trace_state 0
le_enable_score_plot 0
le_plot_file_name 
le_plot_actions 
le_enable_action_trace 0
le_action_trace_interval 0
le_action_trace_name 
le_enable_action_plot 0

le_featurewise_active_features PC, PC_Delta
le_featurewise_num_tilings 3,3,
le_featurewise_num_tiles 128,128,
le_featurewise_hash_types 2,2,
le_featurewise_enable_tiling_offset 1,1,
le_featurewise_max_q_thresh 0.5
le_featurewise_enable_action_fallback 1
le_featurewise_feature_weights 1,1,
le_featurewise_enable_dynamic_weight 0
le_featurewise_weight_gradient 0.001
le_featurewise_disable_adjust_weight_all_features_align 1
le_featurewise_selective_update 0
le_featurewise_pooling_type 2
le_featurewise_enable_dyn_action_fallback 1
le_featurewise_bw_acc_check_level 1
le_featurewise_acc_thresh 2
le_featurewise_enable_trace 0
le_featurewise_trace_feature_type 0
le_featurewise_trace_feature 
le_featurewise_trace_interval 0
le_featurewise_trace_record_count 0
le_featurewise_trace_file_name 
le_featurewise_enable_score_plot 0
le_featurewise_plot_actions 
le_featurewise_plot_file_name 


Heartbeat CPU  0 instructions:    1000002 cycles:     502303 heartbeat IPC: 1.99083 cumulative IPC: 1.99083 (Simulation time: 0 hr 0 min 2 sec) 

Warmup complete CPU  0 instructions:    1000002 cycles:     502303 (Simulation time: 0 hr 0 min 2 sec) 

Heartbeat CPU  0 instructions:    2000001 cycles:    1361425 heartbeat IPC: 1.16398 cumulative IPC: 1.16398 (Simulation time: 0 hr 0 min 3 sec) 
Heartbeat CPU  0 instructions:    3000003 cycles:    2209241 heartbeat IPC: 1.17950 cumulative IPC: 1.17169 (Simulation time: 0 hr 0 min 5 sec) 
Heartbeat CPU  0 instructions:    4000000 cycles:    3059607 heartbeat IPC: 1.17596 cumulative IPC: 1.17311 (Simulation time: 0 hr 0 min 6 sec) 
Heartbeat CPU  0 instructions:    5000000 cycles:    3912817 heartbeat IPC: 1.17204 cumulative IPC: 1.17284 (Simulation time: 0 hr 0 min 8 sec) 
Heartbeat CPU  0 instructions:    6000001 cycles:    4742126 heartbeat IPC: 1.20582 cumulative IPC: 1.17929 (Simulation time: 0 hr 0 min 9 sec) 
Heartbeat CPU  0 instructions:    7000000 cycles:    5590207 heartbeat IPC: 1.17913 cumulative IPC: 1.17927 (Simulation time: 0 hr 0 min 11 sec) 
Heartbeat CPU  0 instructions:    8000000 cycles:    6434608 heartbeat IPC: 1.18427 cumulative IPC: 1.17998 (Simulation time: 0 hr 0 min 13 sec) 
Heartbeat CPU  0 instructions:    9000001 cycles:    7284288 heartbeat IPC: 1.17691 cumulative IPC: 1.17960 (Simulation time: 0 hr 0 min 14 sec) 
Heartbeat CPU  0 instructions:   10000001 cycles:    8146598 heartbeat IPC: 1.15968 cumulative IPC: 1.17735 (Simulation time: 0 hr 0 min 16 sec) 
Heartbeat CPU  0 instructions:   11000001 cycles:    8993060 heartbeat IPC: 1.18139 cumulative IPC: 1.17775 (Simulation time: 0 hr 0 min 17 sec) 
Finished CPU 0 instructions: 10000003 cycles: 8490758 cumulative IPC: 1.17775 (Simulation time: 0 hr 0 min 17 sec) 

ChampSim completed all CPUs

[ROI Statistics]
Core_0_instructions 10000003
Core_0_cycles 8490758
Core_0_IPC 1.17775

Core_0_branch_prediction_accuracy 99.11216
Core_0_branch_MPKI 0.23450
Core_0_average_ROB_occupancy_at_mispredict 241.06013

Core_0_L1D_total_access 2886978
Core_0_L1D_total_hit 2743864
Core_0_L1D_total_miss 143114
Core_0_L1D_loads 2512911
Core_0_L1D_load_hit 2396514
Core_0_L1D_load_miss 116397
Core_0_L1D_RFOs 374067
Core_0_L1D_RFO_hit 347350
Core_0_L1D_RFO_miss 26717
Core_0_L1D_prefetches 0
Core_0_L1D_prefetch_hit 0
Core_0_L1D_prefetch_miss 0
Core_0_L1D_writebacks 0
Core_0_L1D_writeback_hit 0
Core_0_L1D_writeback_miss 0
Core_0_L1D_prefetch_requested 0
Core_0_L1D_prefetch_dropped 0
Core_0_L1D_prefetch_issued 0
Core_0_L1D_prefetch_filled 0
Core_0_L1D_prefetch_useful 0
Core_0_L1D_prefetch_useless 0
Core_0_L1D_prefetch_late 0
Core_0_L1D_average_miss_latency 17.51777

Core_0_L1D_rq_access 3823688
Core_0_L1D_rq_forward 0
Core_0_L1D_rq_merged 1288019
Core_0_L1D_rq_to_cache 2535669
Core_0_L1D_rq_full 0

Core_0_L1D_wq_access 403606
Core_0_L1D_wq_forward 0
Core_0_L1D_wq_merged 0
Core_0_L1D_wq_to_cache 403606
Core_0_L1D_wq_full 0

Core_0_L1D_pq_access 0
Core_0_L1D_pq_forward 0
Core_0_L1D_pq_merged 0
Core_0_L1D_pq_to_cache 0
Core_0_L1D_pq_full 0

Core_0_L1D_acc_epochs 8722
Core_0_L1D_acc_level_0 8722
Core_0_L1D_acc_level_1 0
Core_0_L1D_acc_level_2 0
Core_0_L1D_acc_level_3 0
Core_0_L1D_acc_level_4 0
Core_0_L1D_acc_level_5 0
Core_0_L1D_acc_level_6 0
Core_0_L1D_acc_level_7 0
Core_0_L1D_acc_level_8 0
Core_0_L1D_acc_level_9 0

Core_0_L1I_total_access 2370118
Core_0_L1I_total_hit 2370118
Core_0_L1I_total_miss 0
Core_0_L1I_loads 2370118
Core_0_L1I_load_hit 2370118
Core_0_L1I_load_miss 0
Core_0_L1I_RFOs 0
Core_0_L1I_RFO_hit 0
Core_0_L1I_RFO_miss 0
Core_0_L1I_prefetches 0
Core_0_L1I_prefetch_hit 0
Core_0_L1I_prefetch_miss 0
Core_0_L1I_writebacks 0
Core_0_L1I_writeback_hit 0
Core_0_L1I_writeback_miss 0
Core_0_L1I_prefetch_requested 0
Core_0_L1I_prefetch_dropped 0
Core_0_L1I_prefetch_issued 0
Core_0_L1I_prefetch_filled 0
Core_0_L1I_prefetch_useful 0
Core_0_L1I_prefetch_useless 0
Core_0_L1I_prefetch_late 0
Core_0_L1I_average_miss_latency -nan

Core_0_L1I_rq_access 9999998
Core_0_L1I_rq_forward 0
Core_0_L1I_rq_merged 7629879
Core_0_L1I_rq_to_cache 2370119
Core_0_L1I_rq_full 0

Core_0_L1I_wq_access 0
Core_0_L1I_wq_forward 0
Core_0_L1I_wq_merged 0
Core_0_L1I_wq_to_cache 0
Core_0_L1I_wq_full 0

Core_0_L1I_pq_access 0
Core_0_L1I_pq_forward 0
Core_0_L1I_pq_merged 0
Core_0_L1I_pq_to_cache 0
Core_0_L1I_pq_full 0

Core_0_L1I_acc_epochs 8722
Core_0_L1I_acc_level_0 8722
Core_0_L1I_acc_level_1 0
Core_0_L1I_acc_level_2 0
Core_0_L1I_acc_level_3 0
Core_0_L1I_acc_level_4 0
Core_0_L1I_acc_level_5 0
Core_0_L1I_acc_level_6 0
Core_0_L1I_acc_level_7 0
Core_0_L1I_acc_level_8 0
Core_0_L1I_acc_level_9 0

Core_0_L2C_total_access 609021
Core_0_L2C_total_hit 527410
Core_0_L2C_total_miss 81611
Core_0_L2C_loads 116393
Core_0_L2C_load_hit 110065
Core_0_L2C_load_miss 6328
Core_0_L2C_RFOs 26675
Core_0_L2C_RFO_hit 21538
Core_0_L2C_RFO_miss 5137
Core_0_L2C_prefetches 424078
Core_0_L2C_prefetch_hit 354098
Core_0_L2C_prefetch_miss 69980
Core_0_L2C_writebacks 41875
Core_0_L2C_writeback_hit 41709
Core_0_L2C_writeback_miss 166
Core_0_L2C_prefetch_requested 483150
Core_0_L2C_prefetch_dropped 765
Core_0_L2C_prefetch_issued 482385
Core_0_L2C_prefetch_filled 78163
Core_0_L2C_prefetch_useful 65058
Core_0_L2C_prefetch_useless 12480
Core_0_L2C_prefetch_late 1159
Core_0_L2C_average_miss_latency 94.20922

Core_0_L2C_rq_access 143114
Core_0_L2C_rq_forward 0
Core_0_L2C_rq_merged 0
Core_0_L2C_rq_to_cache 143068
Core_0_L2C_rq_full 0

Core_0_L2C_wq_access 41875
Core_0_L2C_wq_forward 49
Core_0_L2C_wq_merged 0
Core_0_L2C_wq_to_cache 41875
Core_0_L2C_wq_full 0

Core_0_L2C_pq_access 482385
Core_0_L2C_pq_forward 0
Core_0_L2C_pq_merged 4493
Core_0_L2C_pq_to_cache 477889
Core_0_L2C_pq_full 0

Core_0_L2C_acc_epochs 8722
Core_0_L2C_acc_level_0 95
Core_0_L2C_acc_level_1 149
Core_0_L2C_acc_level_2 200
Core_0_L2C_acc_level_3 305
Core_0_L2C_acc_level_4 353
Core_0_L2C_acc_level_5 776
Core_0_L2C_acc_level_6 1186
Core_0_L2C_acc_level_7 1571
Core_0_L2C_acc_level_8 1495
Core_0_L2C_acc_level_9 2592

Core_0_LLC_total_access 99495
Core_0_LLC_total_hit 62880
Core_0_LLC_total_miss 36615
Core_0_LLC_loads 5172
Core_0_LLC_load_hit 4407
Core_0_LLC_load_miss 765
Core_0_LLC_RFOs 5137
Core_0_LLC_RFO_hit 5137
Core_0_LLC_RFO_miss 0
Core_0_LLC_prefetches 71136
Core_0_LLC_prefetch_hit 35318
Core_0_LLC_prefetch_miss 35818
Core_0_LLC_writebacks 18050
Core_0_LLC_writeback_hit 18018
Core_0_LLC_writeback_miss 32
Core_0_LLC_prefetch_requested 0
Core_0_LLC_prefetch_dropped 0
Core_0_LLC_prefetch_issued 0
Core_0_LLC_prefetch_filled 43586
Core_0_LLC_prefetch_useful 3180
Core_0_LLC_prefetch_useless 12218
Core_0_LLC_prefetch_late 0
Core_0_LLC_average_miss_latency 145.98984

Core_0_LLC_rq_access 10309
Core_0_LLC_rq_forward 0
Core_0_LLC_rq_merged 0
Core_0_LLC_rq_to_cache 10309
Core_0_LLC_rq_full 0

Core_0_LLC_wq_access 18050
Core_0_LLC_wq_forward 0
Core_0_LLC_wq_merged 0
Core_0_LLC_wq_to_cache 18050
Core_0_LLC_wq_full 0

Core_0_LLC_pq_access 79324
Core_0_LLC_pq_forward 0
Core_0_LLC_pq_merged 0
Core_0_LLC_pq_to_cache 79324
Core_0_LLC_pq_full 0

Core_0_LLC_acc_epochs 8783
Core_0_LLC_acc_level_0 6781
Core_0_LLC_acc_level_1 1046
Core_0_LLC_acc_level_2 439
Core_0_LLC_acc_level_3 187
Core_0_LLC_acc_level_4 45
Core_0_LLC_acc_level_5 147
Core_0_LLC_acc_level_6 41
Core_0_LLC_acc_level_7 21
Core_0_LLC_acc_level_8 9
Core_0_LLC_acc_level_9 67

Core_0_major_page_fault 0
Core_0_minor_page_fault 940

scooby_st_lookup 128511
scooby_st_hit 124752
scooby_st_evict 3695
scooby_st_insert 3759
scooby_st_streaming 0

scooby_predict_called 128511
scooby_predict_out_of_bounds 1895
scooby_predict_action_1 126414
scooby_predict_issue_action_1 103524
scooby_predict_hit_action_1 22890
scooby_predict_out_of_bounds_action_1 1861
scooby_predict_action_3 22
scooby_predict_issue_action_3 19
scooby_predict_hit_action_3 3
scooby_predict_out_of_bounds_action_3 0
scooby_predict_action_4 14
scooby_predict_issue_action_4 14
scooby_predict_hit_action_4 0
scooby_predict_out_of_bounds_action_4 1
scooby_predict_action_5 12
scooby_predict_issue_action_5 12
scooby_predict_hit_action_5 0
scooby_predict_out_of_bounds_action_5 3
scooby_predict_action_10 24
scooby_predict_issue_action_10 20
scooby_predict_hit_action_10 4
scooby_predict_out_of_bounds_action_10 0
scooby_predict_action_11 16
scooby_predict_issue_action_11 14
scooby_predict_hit_action_11 2
scooby_predict_out_of_bounds_action_11 3
scooby_predict_action_12 15
scooby_predict_issue_action_12 12
scooby_predict_hit_action_12 3
scooby_predict_out_of_bounds_action_12 4
scooby_predict_action_22 15
scooby_predict_issue_action_22 13
scooby_predict_hit_action_22 2
scooby_predict_out_of_bounds_action_22 5
scooby_predict_action_23 11
scooby_predict_issue_action_23 10
scooby_predict_hit_action_23 1
scooby_predict_out_of_bounds_action_23 4
scooby_predict_action_30 12
scooby_predict_issue_action_30 11
scooby_predict_hit_action_30 1
scooby_predict_out_of_bounds_action_30 6
scooby_predict_action_32 7
scooby_predict_issue_action_32 7
scooby_predict_hit_action_32 0
scooby_predict_out_of_bounds_action_32 8
scooby_predict_action_-1 16
scooby_predict_issue_action_-1 3
scooby_predict_hit_action_-1 13
scooby_predict_out_of_bounds_action_-1 0
scooby_predict_action_-3 12
scooby_predict_issue_action_-3 3
scooby_predict_hit_action_-3 9
scooby_predict_out_of_bounds_action_-3 0
scooby_predict_action_-6 11
scooby_predict_issue_action_-6 3
scooby_predict_hit_action_-6 8
scooby_predict_out_of_bounds_action_-6 0
scooby_predict_action_0 15
scooby_predict_issue_action_0 0
scooby_predict_hit_action_0 0
scooby_predict_out_of_bounds_action_0 0
scooby_predict_multi_deg_called 92537
scooby_predict_predicted 483150
scooby_predict_multi_deg 379485
scooby_predict_multi_deg_2 91121
scooby_predict_multi_deg_3 82317
scooby_predict_multi_deg_4 80827
scooby_predict_multi_deg_5 63193
scooby_predict_multi_deg_6 62027
scooby_predict_multi_deg_7 0
scooby_predict_multi_deg_8 0
scooby_predict_multi_deg_9 0
scooby_predict_multi_deg_10 0
scooby_predict_multi_deg_11 0
scooby_predict_multi_deg_12 0
scooby_predict_multi_deg_13 0
scooby_predict_multi_deg_14 0
scooby_predict_multi_deg_15 0
scooby_predict_multi_deg_16 0

scooby_selected_deg_1 11128
scooby_selected_deg_2 7438
scooby_selected_deg_3 0
scooby_selected_deg_4 17031
scooby_selected_deg_5 0
scooby_selected_deg_6 68068
scooby_selected_deg_7 0
scooby_selected_deg_8 0
scooby_selected_deg_9 0
scooby_selected_deg_10 0
scooby_selected_deg_11 0
scooby_selected_deg_12 0
scooby_selected_deg_13 0
scooby_selected_deg_14 0
scooby_selected_deg_15 0
scooby_selected_deg_16 0

scooby_state_40d23c|27|1 159,0,0,0,0,0,0,0,0,0,0,0,0,0,0,159,
scooby_state_40d23c|17|1 159,0,0,0,0,0,0,0,0,0,0,0,0,0,0,159,
scooby_state_40d23c|16|1 158,0,0,0,0,0,0,0,0,0,0,0,0,0,0,158,
scooby_state_40d23c|48|1 158,0,0,0,0,0,0,0,0,0,0,0,0,0,0,158,
scooby_state_40d23c|37|1 158,0,0,0,0,0,0,0,0,0,0,0,0,0,0,158,
scooby_state_40d23c|26|1 158,0,0,0,0,0,0,0,0,0,0,0,0,0,0,158,
scooby_state_40d23c|47|1 157,0,0,0,0,0,0,0,0,0,0,0,0,0,0,157,
scooby_state_40d23c|38|1 157,0,0,0,0,0,0,0,0,0,0,0,0,0,0,157,
scooby_state_40d23c|49|1 157,0,0,0,0,0,0,0,0,0,0,0,0,0,0,157,
scooby_state_40d23c|36|1 156,0,0,0,0,0,0,0,0,0,0,0,0,0,0,156,
scooby_state_40d23c|28|1 155,0,0,0,0,1,0,0,0,0,0,0,0,0,0,156,
scooby_state_40d23c|18|1 156,0,0,0,0,0,0,0,0,0,0,0,0,0,0,156,
scooby_state_40de73|17|1 155,0,0,0,0,0,0,0,0,0,0,0,1,0,0,156,
scooby_state_40de73|16|1 156,0,0,0,0,0,0,0,0,0,0,0,0,0,0,156,
scooby_state_40d23c|46|1 155,0,0,0,0,0,0,0,0,0,0,0,0,0,0,155,
scooby_state_40d23c|39|1 154,0,0,0,0,0,1,0,0,0,0,0,0,0,0,155,
scooby_state_40de73|15|1 155,0,0,0,0,0,0,0,0,0,0,0,0,0,0,155,
scooby_state_40d23c|29|1 154,0,0,0,0,0,0,0,0,0,0,0,0,0,0,154,
scooby_state_40d23c|15|1 153,0,0,0,0,0,0,0,0,0,1,0,0,0,0,154,
scooby_state_40d23c|25|1 154,0,0,0,0,0,0,0,0,0,0,0,0,0,0,154,
scooby_state_40d23c|19|1 153,0,0,0,0,0,0,1,0,0,0,0,0,0,0,154,
scooby_state_40d23c|22|1 153,0,0,0,0,0,0,0,0,0,0,0,0,0,0,153,
scooby_state_40d23c|21|1 153,0,0,0,0,0,0,0,0,0,0,0,0,0,0,153,
scooby_state_40d23c|53|1 153,0,0,0,0,0,0,0,0,0,0,0,0,0,0,153,
scooby_state_40de73|14|1 153,0,0,0,0,0,0,0,0,0,0,0,0,0,0,153,
scooby_state_40d23c|50|1 152,0,0,0,0,0,0,0,0,0,0,1,0,0,0,153,
scooby_state_40d23c|6|1 153,0,0,0,0,0,0,0,0,0,0,0,0,0,0,153,
scooby_state_40d23c|20|1 153,0,0,0,0,0,0,0,0,0,0,0,0,0,0,153,
scooby_state_40d23c|23|1 153,0,0,0,0,0,0,0,0,0,0,0,0,0,0,153,
scooby_state_40d23c|24|1 152,0,0,0,0,0,0,0,0,0,0,0,0,0,0,152,
scooby_state_40de2d|11|1 152,0,0,0,0,0,0,0,0,0,0,0,0,0,0,152,
scooby_state_40d23c|52|1 152,0,0,0,0,0,0,0,0,0,0,0,0,0,0,152,
scooby_state_40d23c|7|1 152,0,0,0,0,0,0,0,0,0,0,0,0,0,0,152,
scooby_state_40d23c|45|1 152,0,0,0,0,0,0,0,0,0,0,0,0,0,0,152,
scooby_state_40de73|18|1 151,0,0,0,1,0,0,0,0,0,0,0,0,0,0,152,
scooby_state_40de2d|10|1 152,0,0,0,0,0,0,0,0,0,0,0,0,0,0,152,
scooby_state_40d23c|35|1 152,0,0,0,0,0,0,0,0,0,0,0,0,0,0,152,
scooby_state_40d23c|33|1 151,0,0,0,0,0,0,0,0,0,0,0,0,0,0,151,
scooby_state_40d23c|51|1 151,0,0,0,0,0,0,0,0,0,0,0,0,0,0,151,
scooby_state_40d23c|10|1 151,0,0,0,0,0,0,0,0,0,0,0,0,0,0,151,
scooby_state_40d23c|40|1 151,0,0,0,0,0,0,0,0,0,0,0,0,0,0,151,
scooby_state_40d23c|14|1 151,0,0,0,0,0,0,0,0,0,0,0,0,0,0,151,
scooby_state_40d23c|11|1 151,0,0,0,0,0,0,0,0,0,0,0,0,0,0,151,
scooby_state_40d23c|30|1 151,0,0,0,0,0,0,0,0,0,0,0,0,0,0,151,
scooby_state_40d23c|5|1 151,0,0,0,0,0,0,0,0,0,0,0,0,0,0,151,
scooby_state_40de73|13|1 149,1,0,0,0,1,0,0,0,0,0,0,0,0,0,151,
scooby_state_40d23c|54|1 151,0,0,0,0,0,0,0,0,0,0,0,0,0,0,151,
scooby_state_40d23c|43|1 150,0,0,0,0,0,1,0,0,0,0,0,0,0,0,151,
scooby_state_40d23c|12|1 149,0,0,1,0,0,0,0,0,0,0,0,0,0,0,150,
scooby_state_40d23c|13|1 150,0,0,0,0,0,0,0,0,0,0,0,0,0,0,150,
scooby_state_40d23c|0|0 150,0,0,0,0,0,0,0,0,0,0,0,0,0,0,150,
scooby_state_40d23c|32|1 150,0,0,0,0,0,0,0,0,0,0,0,0,0,0,150,
scooby_state_40d23c|8|1 149,0,0,0,1,0,0,0,0,0,0,0,0,0,0,150,
scooby_state_40d23c|42|1 150,0,0,0,0,0,0,0,0,0,0,0,0,0,0,150,
scooby_state_40d23c|34|1 148,0,0,0,0,0,0,0,0,0,1,0,0,1,0,150,
scooby_state_40d23c|44|1 150,0,0,0,0,0,0,0,0,0,0,0,0,0,0,150,
scooby_state_40d23c|9|1 149,1,0,0,0,0,0,0,0,0,0,0,0,0,0,150,
scooby_state_40d23c|41|1 149,0,0,0,0,0,0,0,0,0,0,0,0,0,0,149,
scooby_state_40de73|12|1 149,0,0,0,0,0,0,0,0,0,0,0,0,0,0,149,
scooby_state_40de73|22|1 149,0,0,0,0,0,0,0,0,0,0,0,0,0,0,149,
scooby_state_40de73|6|1 149,0,0,0,0,0,0,0,0,0,0,0,0,0,0,149,
scooby_state_40de73|19|1 149,0,0,0,0,0,0,0,0,0,0,0,0,0,0,149,
scooby_state_40de73|7|1 149,0,0,0,0,0,0,0,0,0,0,0,0,0,0,149,
scooby_state_40d23c|55|1 149,0,0,0,0,0,0,0,0,0,0,0,0,0,0,149,
scooby_state_40de73|23|1 149,0,0,0,0,0,0,0,0,0,0,0,0,0,0,149,
scooby_state_40de73|21|1 149,0,0,0,0,0,0,0,0,0,0,0,0,0,0,149,
scooby_state_40d23c|58|1 149,0,0,0,0,0,0,0,0,0,0,0,0,0,0,149,
scooby_state_40d23c|31|1 149,0,0,0,0,0,0,0,0,0,0,0,0,0,0,149,
scooby_state_40de73|11|1 148,0,0,0,0,0,0,0,0,0,0,0,0,0,0,148,
scooby_state_40d23c|59|1 148,0,0,0,0,0,0,0,0,0,0,0,0,0,0,148,
scooby_state_40d23c|56|1 148,0,0,0,0,0,0,0,0,0,0,0,0,0,0,148,
scooby_state_40de73|20|1 148,0,0,0,0,0,0,0,0,0,0,0,0,0,0,148,
scooby_state_40d23c|57|1 147,0,0,0,0,0,0,0,0,0,0,0,1,0,0,148,
scooby_state_40de73|27|1 147,0,0,0,0,0,0,0,0,0,0,0,0,0,0,147,
scooby_state_40de73|26|1 147,0,0,0,0,0,0,0,0,0,0,0,0,0,0,147,
scooby_state_40de73|24|1 147,0,0,0,0,0,0,0,0,0,0,0,0,0,0,147,
scooby_state_40de73|8|1 146,0,0,0,0,0,0,0,0,0,0,0,0,0,0,146,
scooby_state_40de73|25|1 145,0,1,0,0,0,0,0,0,0,0,0,0,0,0,146,
scooby_state_40de73|5|1 145,0,0,1,0,0,0,0,0,0,0,0,0,0,0,146,
scooby_state_40d23c|4|1 146,0,0,0,0,0,0,0,0,0,0,0,0,0,0,146,
scooby_state_40de73|10|1 146,0,0,0,0,0,0,0,0,0,0,0,0,0,0,146,
scooby_state_40de73|9|1 144,0,1,0,0,0,0,0,0,0,0,0,0,0,0,145,
scooby_state_40de2d|7|1 144,0,0,0,0,0,0,0,0,0,0,0,0,0,0,144,
scooby_state_40de2d|3|1 144,0,0,0,0,0,0,0,0,0,0,0,0,0,0,144,
scooby_state_40de2d|5|1 144,0,0,0,0,0,0,0,0,0,0,0,0,0,0,144,
scooby_state_40de2d|8|1 144,0,0,0,0,0,0,0,0,0,0,0,0,0,0,144,
scooby_state_40de2d|58|1 144,0,0,0,0,0,0,0,0,0,0,0,0,0,0,144,
scooby_state_40d23c|60|1 143,0,0,0,0,0,1,0,0,0,0,0,0,0,0,144,
scooby_state_40de2d|4|1 144,0,0,0,0,0,0,0,0,0,0,0,0,0,0,144,
scooby_state_40de2d|6|1 144,0,0,0,0,0,0,0,0,0,0,0,0,0,0,144,
scooby_state_40de2d|9|1 144,0,0,0,0,0,0,0,0,0,0,0,0,0,0,144,
scooby_state_40de2d|1|1 144,0,0,0,0,0,0,0,0,0,0,0,0,0,0,144,
scooby_state_40de2d|2|1 144,0,0,0,0,0,0,0,0,0,0,0,0,0,0,144,
scooby_state_40de73|28|1 143,0,0,0,0,0,0,0,0,0,0,0,0,0,0,143,
scooby_state_40d23c|3|1 142,0,0,0,0,0,0,0,0,0,0,0,0,0,0,142,
scooby_state_40de2d|26|1 142,0,0,0,0,0,0,0,0,0,0,0,0,0,0,142,
scooby_state_40de73|0|0 141,0,0,0,0,0,0,0,0,0,0,0,0,0,1,142,
scooby_state_40d23c|1|1 142,0,0,0,0,0,0,0,0,0,0,0,0,0,0,142,
scooby_state_40d23c|63|1 141,0,0,0,0,0,0,0,0,0,0,0,0,0,0,141,
scooby_state_40de73|4|1 141,0,0,0,0,0,0,0,0,0,0,0,0,0,0,141,
scooby_state_40d23c|2|1 140,0,0,0,0,0,0,0,0,1,0,0,0,0,0,141,
scooby_state_40d23c|61|1 141,0,0,0,0,0,0,0,0,0,0,0,0,0,0,141,
scooby_state_40d23c|62|1 140,0,0,0,0,0,0,0,0,0,0,0,0,0,0,140,
scooby_state_40de2d|42|1 139,0,0,0,0,0,0,0,0,0,0,0,0,0,0,139,
scooby_state_40de73|29|1 138,0,0,0,0,0,0,0,0,0,0,0,0,0,0,138,
scooby_state_40de73|3|1 137,0,0,0,0,0,0,0,0,0,0,0,0,0,0,137,
scooby_state_40de73|54|1 136,0,0,0,0,0,0,0,0,0,0,0,0,0,0,136,
scooby_state_40de73|49|1 136,0,0,0,0,0,0,0,0,0,0,0,0,0,0,136,
scooby_state_40de2d|57|1 136,0,0,0,0,0,0,0,0,0,0,0,0,0,0,136,
scooby_state_40de73|59|1 136,0,0,0,0,0,0,0,0,0,0,0,0,0,0,136,
scooby_state_40de2d|27|1 135,0,0,0,0,0,0,0,0,0,0,0,0,0,0,135,
scooby_state_40de73|55|1 134,0,0,0,0,0,0,0,0,0,0,0,0,0,1,135,
scooby_state_40de73|2|1 135,0,0,0,0,0,0,0,0,0,0,0,0,0,0,135,
scooby_state_40de73|48|1 135,0,0,0,0,0,0,0,0,0,0,0,0,0,0,135,
scooby_state_40de2d|15|1 135,0,0,0,0,0,0,0,0,0,0,0,0,0,0,135,
scooby_state_40de2d|12|1 135,0,0,0,0,0,0,0,0,0,0,0,0,0,0,135,
scooby_state_40de73|37|1 134,0,0,0,0,0,0,0,0,0,1,0,0,0,0,135,
scooby_state_40de73|53|1 133,0,0,0,0,0,1,0,0,0,0,0,0,1,0,135,
scooby_state_40de73|60|1 135,0,0,0,0,0,0,0,0,0,0,0,0,0,0,135,
scooby_state_40de2d|25|1 135,0,0,0,0,0,0,0,0,0,0,0,0,0,0,135,
scooby_state_40de73|50|1 135,0,0,0,0,0,0,0,0,0,0,0,0,0,0,135,
scooby_state_40de2d|41|1 134,0,0,0,0,0,0,0,0,0,0,0,0,1,0,135,
scooby_state_40de2d|14|1 135,0,0,0,0,0,0,0,0,0,0,0,0,0,0,135,
scooby_state_40de73|38|1 134,0,0,0,0,1,0,0,0,0,0,0,0,0,0,135,
scooby_state_40de2d|43|1 135,0,0,0,0,0,0,0,0,0,0,0,0,0,0,135,
scooby_state_40de2d|13|1 133,1,1,0,0,0,0,0,0,0,0,0,0,0,0,135,
scooby_state_40de73|58|1 135,0,0,0,0,0,0,0,0,0,0,0,0,0,0,135,
scooby_state_40de73|30|1 134,0,0,0,0,0,0,0,0,0,0,0,0,0,0,134,
scooby_state_40de73|1|1 134,0,0,0,0,0,0,0,0,0,0,0,0,0,0,134,
scooby_state_40de73|57|1 133,0,0,0,0,0,0,0,0,0,0,0,0,0,0,133,
scooby_state_40de73|51|1 132,1,0,0,0,0,0,0,0,0,0,0,0,0,0,133,
scooby_state_40de73|52|1 133,0,0,0,0,0,0,0,0,0,0,0,0,0,0,133,
scooby_state_40de73|61|1 133,0,0,0,0,0,0,0,0,0,0,0,0,0,0,133,
scooby_state_40de73|47|1 133,0,0,0,0,0,0,0,0,0,0,0,0,0,0,133,
scooby_state_40de73|56|1 133,0,0,0,0,0,0,0,0,0,0,0,0,0,0,133,
scooby_state_40de73|36|1 132,0,0,0,0,0,0,0,0,0,0,0,0,0,0,132,
scooby_state_40de73|31|1 131,0,1,0,0,0,0,0,0,0,0,0,0,0,0,132,
scooby_state_40de73|39|1 132,0,0,0,0,0,0,0,0,0,0,0,0,0,0,132,
scooby_state_40de73|33|1 132,0,0,0,0,0,0,0,0,0,0,0,0,0,0,132,
scooby_state_40de73|32|1 131,0,0,0,0,0,0,0,0,0,0,0,0,0,0,131,
scooby_state_40de73|46|1 131,0,0,0,0,0,0,0,0,0,0,0,0,0,0,131,
scooby_state_40de73|62|1 131,0,0,0,0,0,0,0,0,0,0,0,0,0,0,131,
scooby_state_40de2d|59|1 130,0,0,1,0,0,0,0,0,0,0,0,0,0,0,131,
scooby_state_40de2d|0|0 131,0,0,0,0,0,0,0,0,0,0,0,0,0,0,131,
scooby_state_40de73|63|1 131,0,0,0,0,0,0,0,0,0,0,0,0,0,0,131,
scooby_state_40de73|34|1 130,0,0,0,0,0,0,0,0,0,0,0,0,0,0,130,
scooby_state_40d2a6|39|-8 128,0,0,0,0,0,1,0,0,0,0,0,0,0,0,129,
scooby_state_40d224|47|1 129,0,0,0,0,0,0,0,0,0,0,0,0,0,0,129,
scooby_state_40de73|40|1 127,0,0,0,1,0,0,0,0,1,0,0,0,0,0,129,
scooby_state_40de73|45|1 129,0,0,0,0,0,0,0,0,0,0,0,0,0,0,129,
scooby_state_40de73|35|1 129,0,0,0,0,0,0,0,0,0,0,0,0,0,0,129,
scooby_state_40d209|46|1 129,0,0,0,0,0,0,0,0,0,0,0,0,0,0,129,
scooby_state_40de73|43|1 128,0,0,0,0,0,0,0,0,0,0,0,0,0,0,128,
scooby_state_40de73|44|1 128,0,0,0,0,0,0,0,0,0,0,0,0,0,0,128,
scooby_state_40d2ad|40|1 127,0,0,0,1,0,0,0,0,0,0,0,0,0,0,128,
scooby_state_40de2d|62|1 126,0,0,0,0,0,0,0,0,0,0,0,0,1,0,127,
scooby_state_40de73|42|1 127,0,0,0,0,0,0,0,0,0,0,0,0,0,0,127,
scooby_state_40de2d|56|1 126,0,0,0,0,0,0,0,0,0,0,1,0,0,0,127,
scooby_state_40de2d|48|1 127,0,0,0,0,0,0,0,0,0,0,0,0,0,0,127,
scooby_state_40de2d|52|1 127,0,0,0,0,0,0,0,0,0,0,0,0,0,0,127,
scooby_state_40de2d|51|1 127,0,0,0,0,0,0,0,0,0,0,0,0,0,0,127,
scooby_state_40de2d|55|1 127,0,0,0,0,0,0,0,0,0,0,0,0,0,0,127,
scooby_state_40de2d|16|1 127,0,0,0,0,0,0,0,0,0,0,0,0,0,0,127,
scooby_state_40de2d|24|1 126,0,0,0,0,0,0,0,0,0,0,0,0,0,1,127,
scooby_state_40de2d|50|1 127,0,0,0,0,0,0,0,0,0,0,0,0,0,0,127,
scooby_state_40de2d|44|1 125,1,0,0,1,0,0,0,0,0,0,0,0,0,0,127,
scooby_state_40de2d|54|1 127,0,0,0,0,0,0,0,0,0,0,0,0,0,0,127,
scooby_state_40de2d|49|1 127,0,0,0,0,0,0,0,0,0,0,0,0,0,0,127,
scooby_state_40de2d|32|1 127,0,0,0,0,0,0,0,0,0,0,0,0,0,0,127,
scooby_state_40de2d|33|1 127,0,0,0,0,0,0,0,0,0,0,0,0,0,0,127,
scooby_state_40de2d|31|1 127,0,0,0,0,0,0,0,0,0,0,0,0,0,0,127,
scooby_state_40de2d|17|1 126,0,0,0,0,0,0,0,0,1,0,0,0,0,0,127,
scooby_state_40de73|41|1 127,0,0,0,0,0,0,0,0,0,0,0,0,0,0,127,
scooby_state_40de2d|20|1 126,0,0,0,0,0,0,0,0,0,1,0,0,0,0,127,
scooby_state_40de2d|18|1 127,0,0,0,0,0,0,0,0,0,0,0,0,0,0,127,
scooby_state_40de2d|30|1 127,0,0,0,0,0,0,0,0,0,0,0,0,0,0,127,
scooby_state_40de2d|60|1 127,0,0,0,0,0,0,0,0,0,0,0,0,0,0,127,
scooby_state_40de2d|61|1 127,0,0,0,0,0,0,0,0,0,0,0,0,0,0,127,
scooby_state_40de2d|23|1 126,0,0,0,0,0,0,0,0,0,1,0,0,0,0,127,
scooby_state_40de2d|47|1 126,0,0,0,0,0,0,0,0,0,1,0,0,0,0,127,
scooby_state_40de2d|29|1 126,0,0,1,0,0,0,0,0,0,0,0,0,0,0,127,
scooby_state_40de2d|19|1 127,0,0,0,0,0,0,0,0,0,0,0,0,0,0,127,
scooby_state_40de2d|28|1 126,0,1,0,0,0,0,0,0,0,0,0,0,0,0,127,
scooby_state_40de2d|21|1 126,0,0,0,0,0,0,1,0,0,0,0,0,0,0,127,
scooby_state_40de2d|45|1 126,0,0,0,0,0,0,0,0,0,0,0,0,0,1,127,
scooby_state_40de2d|22|1 126,0,0,0,0,0,0,0,0,0,0,1,0,0,0,127,
scooby_state_40de2d|53|1 125,0,2,0,0,0,0,0,0,0,0,0,0,0,0,127,
scooby_state_40de2d|63|1 127,0,0,0,0,0,0,0,0,0,0,0,0,0,0,127,
scooby_state_40de2d|46|1 127,0,0,0,0,0,0,0,0,0,0,0,0,0,0,127,
scooby_state_40de2d|36|1 125,0,0,0,0,1,0,0,0,0,0,0,0,0,0,126,
scooby_state_40de2d|38|1 126,0,0,0,0,0,0,0,0,0,0,0,0,0,0,126,
scooby_state_40de2d|34|1 126,0,0,0,0,0,0,0,0,0,0,0,0,0,0,126,
scooby_state_40de2d|39|1 126,0,0,0,0,0,0,0,0,0,0,0,0,0,0,126,
scooby_state_40de2d|35|1 126,0,0,0,0,0,0,0,0,0,0,0,0,0,0,126,
scooby_state_40de2d|37|1 126,0,0,0,0,0,0,0,0,0,0,0,0,0,0,126,
scooby_state_40de2d|40|1 125,0,0,0,0,0,0,0,0,0,0,0,1,0,0,126,
scooby_state_40d353|33|-7 121,0,0,0,0,0,0,0,0,0,0,0,0,0,0,121,
scooby_state_40da80|18|-1 119,0,0,0,0,0,0,0,0,0,0,0,0,0,0,119,
scooby_state_40d908|49|-1 113,0,0,0,0,1,0,0,0,0,0,0,0,0,0,114,
scooby_state_40d7bc|10|0 99,0,0,0,0,0,0,1,0,0,0,0,0,0,0,100,
scooby_state_40d7c4|11|0 97,0,0,0,0,0,0,0,0,0,0,0,0,0,0,97,
scooby_state_40d7c4|10|0 93,0,0,0,0,0,0,0,1,0,0,0,0,0,0,94,
scooby_state_40d8be|11|0 93,0,0,0,0,0,0,0,0,0,0,0,0,0,0,93,
scooby_state_40d83d|11|0 93,0,0,0,0,0,0,0,0,0,0,0,0,0,0,93,
scooby_state_40db93|23|1 87,0,0,1,0,0,0,1,1,0,0,1,0,0,0,91,
scooby_state_40d83d|10|0 88,0,0,0,0,0,0,0,0,0,0,0,0,0,1,89,
scooby_state_40d9f3|6|-43 87,0,0,0,0,0,0,0,0,0,0,0,0,0,0,87,
scooby_state_40d947|11|0 85,0,0,0,0,0,0,0,0,0,0,0,0,0,0,85,
scooby_state_40d947|10|0 80,0,0,0,0,0,0,0,0,0,0,0,0,0,0,80,
scooby_state_40da5f|19|3 78,0,0,0,0,0,0,0,0,0,0,0,0,0,0,78,
scooby_state_40d83d|56|0 77,0,0,0,0,0,0,0,0,0,0,0,0,0,0,77,
scooby_state_40d83d|57|0 76,0,0,0,0,0,0,0,0,0,0,0,0,0,0,76,
scooby_state_40d8be|10|0 75,0,0,0,0,0,0,0,0,0,0,0,0,0,0,75,
scooby_state_40d7ef|57|0 74,0,0,0,0,0,0,0,0,0,0,0,0,0,0,74,
scooby_state_40d7ef|57|4 73,0,0,0,0,0,0,0,0,0,0,0,0,0,0,73,
scooby_state_40d775|53|0 72,0,0,0,0,0,0,0,0,0,0,0,0,0,0,72,
scooby_state_40d76e|54|0 70,0,0,0,0,0,0,0,0,0,0,0,0,0,0,70,
scooby_state_40d8f1|50|-10 69,0,0,0,0,0,0,0,0,0,0,0,0,1,0,70,
scooby_state_40d745|16|-2 69,0,0,0,0,0,0,0,0,0,0,0,0,0,0,69,
scooby_state_40d870|61|0 67,0,0,0,0,0,0,0,0,0,0,1,0,0,0,68,
scooby_state_40d947|49|0 68,0,0,0,0,0,0,0,0,0,0,0,0,0,0,68,
scooby_state_40d7c4|56|0 67,0,0,0,0,0,0,0,0,0,0,0,0,0,0,67,
scooby_state_40d8f1|50|0 66,0,0,0,0,0,0,0,0,0,0,0,0,0,0,66,
scooby_state_40d7c4|54|0 66,0,0,0,0,0,0,0,0,0,0,0,0,0,0,66,
scooby_state_40d908|49|0 66,0,0,0,0,0,0,0,0,0,0,0,0,0,0,66,
scooby_state_40d7a1|10|0 65,0,0,0,0,0,0,0,0,0,0,0,0,0,0,65,
scooby_state_40da78|14|2 64,0,0,0,0,0,0,0,0,0,0,0,0,0,0,64,
scooby_state_40d7c4|53|0 62,0,0,0,0,0,0,0,0,0,0,0,0,0,0,62,
scooby_state_40d7c4|57|0 61,0,0,0,0,0,0,0,0,0,0,0,0,0,0,61,
scooby_state_40d1ed|45|22 60,0,0,0,0,0,0,0,0,0,0,0,0,0,0,60,
scooby_state_40da8d|63|57 60,0,0,0,0,0,0,0,0,0,0,0,0,0,0,60,
scooby_state_40d8be|56|0 60,0,0,0,0,0,0,0,0,0,0,0,0,0,0,60,
scooby_state_40d7c4|61|0 58,0,0,0,0,0,0,0,0,0,1,0,0,0,0,59,
scooby_state_40dac0|22|-41 59,0,0,0,0,0,0,0,0,0,0,0,0,0,0,59,
scooby_state_40d7c4|60|0 58,0,0,0,0,0,0,0,0,0,0,0,0,0,0,58,
scooby_state_40d94c|10|0 58,0,0,0,0,0,0,0,0,0,0,0,0,0,0,58,
scooby_state_40dc1c|56|31 57,0,0,0,0,0,0,0,0,0,0,0,0,0,0,57,
scooby_state_40dc1c|58|31 57,0,0,0,0,0,0,0,0,0,0,0,0,0,0,57,
scooby_state_40dc1c|57|31 57,0,0,0,0,0,0,0,0,0,0,0,0,0,0,57,
scooby_state_40dc69|28|-30 57,0,0,0,0,0,0,0,0,0,0,0,0,0,0,57,
scooby_state_40dc69|26|-30 57,0,0,0,0,0,0,0,0,0,0,0,0,0,0,57,
scooby_state_40dc1c|59|31 57,0,0,0,0,0,0,0,0,0,0,0,0,0,0,57,
scooby_state_40dc69|25|-30 57,0,0,0,0,0,0,0,0,0,0,0,0,0,0,57,
scooby_state_40dc1c|54|31 56,0,0,0,0,0,0,1,0,0,0,0,0,0,0,57,
scooby_state_40dc69|27|-30 57,0,0,0,0,0,0,0,0,0,0,0,0,0,0,57,
scooby_state_40dc1c|53|31 56,0,0,0,0,0,0,0,0,0,0,0,0,0,0,56,
scooby_state_40dc1c|55|31 56,0,0,0,0,0,0,0,0,0,0,0,0,0,0,56,
scooby_state_40dc69|24|-30 56,0,0,0,0,0,0,0,0,0,0,0,0,0,0,56,
scooby_state_40d7c4|49|0 56,0,0,0,0,0,0,0,0,0,0,0,0,0,0,56,
scooby_state_40d7c4|50|0 56,0,0,0,0,0,0,0,0,0,0,0,0,0,0,56,
scooby_state_40dc5d|38|1 54,0,0,0,0,0,0,1,0,0,0,0,0,0,0,55,
scooby_state_40d8be|50|0 55,0,0,0,0,0,0,0,0,0,0,0,0,0,0,55,
scooby_state_40dc5d|39|1 55,0,0,0,0,0,0,0,0,0,0,0,0,0,0,55,
scooby_state_40d83d|60|0 55,0,0,0,0,0,0,0,0,0,0,0,0,0,0,55,
scooby_state_40d8be|61|0 55,0,0,0,0,0,0,0,0,0,0,0,0,0,0,55,
scooby_state_40dc69|29|-30 55,0,0,0,0,0,0,0,0,0,0,0,0,0,0,55,
scooby_state_40dc69|23|-30 55,0,0,0,0,0,0,0,0,0,0,0,0,0,0,55,
scooby_state_40dc1c|60|31 55,0,0,0,0,0,0,0,0,0,0,0,0,0,0,55,
scooby_state_40d8be|53|0 55,0,0,0,0,0,0,0,0,0,0,0,0,0,0,55,
scooby_state_40d94c|11|0 54,0,0,0,0,0,0,0,0,0,0,0,0,0,0,54,
scooby_state_40d947|54|0 53,0,0,0,0,0,0,0,0,0,0,0,0,0,0,53,
scooby_state_40d83d|54|0 53,0,0,0,0,0,0,0,0,0,0,0,0,0,0,53,
scooby_state_40d8be|60|0 53,0,0,0,0,0,0,0,0,0,0,0,0,0,0,53,
scooby_state_40d83d|50|0 52,0,0,0,0,0,0,0,0,0,0,0,0,0,0,52,
scooby_state_40dc1c|61|31 52,0,0,0,0,0,0,0,0,0,0,0,0,0,0,52,
scooby_state_40d947|56|0 52,0,0,0,0,0,0,0,0,0,0,0,0,0,0,52,
scooby_state_40d83d|49|0 52,0,0,0,0,0,0,0,0,0,0,0,0,0,0,52,
scooby_state_40dc69|30|-30 52,0,0,0,0,0,0,0,0,0,0,0,0,0,0,52,
scooby_state_40d947|50|0 52,0,0,0,0,0,0,0,0,0,0,0,0,0,0,52,
scooby_state_40d7f6|56|-1 52,0,0,0,0,0,0,0,0,0,0,0,0,0,0,52,
scooby_state_40d7f6|56|0 51,0,0,0,0,0,0,0,0,0,0,0,0,0,0,51,
scooby_state_40d94c|49|0 51,0,0,0,0,0,0,0,0,0,0,0,0,0,0,51,
scooby_state_40d83d|53|0 50,0,0,0,0,0,0,0,0,0,0,0,0,0,0,50,
scooby_state_40d822|11|0 50,0,0,0,0,0,0,0,0,0,0,0,0,0,0,50,
scooby_state_40d887|60|0 50,0,0,0,0,0,0,0,0,0,0,0,0,0,0,50,
scooby_state_40dc5d|34|1 50,0,0,0,0,0,0,0,0,0,0,0,0,0,0,50,
scooby_state_40d8be|57|0 50,0,0,0,0,0,0,0,0,0,0,0,0,0,0,50,
scooby_state_40d947|60|0 49,0,0,0,0,0,0,0,0,0,0,0,0,0,0,49,
scooby_state_40d94c|54|0 49,0,0,0,0,0,0,0,0,0,0,0,0,0,0,49,
scooby_state_40d7a1|11|0 48,0,0,0,0,0,0,0,0,0,0,0,0,0,0,48,
scooby_state_40dc5d|36|1 48,0,0,0,0,0,0,0,0,0,0,0,0,0,0,48,
scooby_state_40d947|57|0 48,0,0,0,0,0,0,0,0,0,0,0,0,0,0,48,
scooby_state_40d7c9|11|0 48,0,0,0,0,0,0,0,0,0,0,0,0,0,0,48,
scooby_state_40dc5d|35|1 48,0,0,0,0,0,0,0,0,0,0,0,0,0,0,48,
scooby_state_40d83d|61|0 47,0,0,0,0,0,0,0,0,0,0,0,0,0,0,47,
scooby_state_40d84a|11|0 47,0,0,0,0,0,0,0,0,0,0,0,0,0,0,47,
scooby_state_40dc1c|62|31 46,0,0,0,0,0,0,0,0,0,0,0,0,0,0,46,
scooby_state_40d8f1|50|35 46,0,0,0,0,0,0,0,0,0,0,0,0,0,0,46,
scooby_state_40d381|55|-3 45,0,0,0,0,0,0,0,0,0,0,0,0,0,0,45,
scooby_state_40dc5d|37|1 45,0,0,0,0,0,0,0,0,0,0,0,0,0,0,45,
scooby_state_40d94c|60|0 44,0,0,0,0,0,0,0,0,0,0,0,0,0,0,44,
scooby_state_40d8c3|11|0 44,0,0,0,0,0,0,0,0,0,0,0,0,0,0,44,
scooby_state_40d842|10|0 44,0,0,0,0,0,0,0,0,0,0,0,0,0,0,44,
scooby_state_40d412|58|25 43,0,0,0,0,0,0,0,0,0,0,0,0,0,0,43,
scooby_state_40d8be|49|0 43,0,0,0,0,0,0,0,0,0,0,0,0,0,0,43,
scooby_state_40d947|53|0 42,0,0,0,0,0,0,0,0,0,0,0,0,0,0,42,
scooby_state_40d7a1|53|0 42,0,0,0,0,0,0,0,0,0,0,0,0,0,0,42,
scooby_state_40d8be|54|0 42,0,0,0,0,0,0,0,0,0,0,0,0,0,0,42,
scooby_state_40d94c|57|0 42,0,0,0,0,0,0,0,0,0,0,0,0,0,0,42,
scooby_state_40d822|10|0 41,0,0,0,0,0,0,0,0,1,0,0,0,0,0,42,
scooby_state_40d924|11|0 41,0,0,0,0,0,0,0,0,0,0,0,0,0,0,41,
scooby_state_40dc56|7|1 41,0,0,0,0,0,0,0,0,0,0,0,0,0,0,41,
scooby_state_40dc1c|63|31 41,0,0,0,0,0,0,0,0,0,0,0,0,0,0,41,
scooby_state_40d8a3|10|0 41,0,0,0,0,0,0,0,0,0,0,0,0,0,0,41,
scooby_state_40dc56|9|1 41,0,0,0,0,0,0,0,0,0,0,0,0,0,0,41,
scooby_state_40d947|61|0 41,0,0,0,0,0,0,0,0,0,0,0,0,0,0,41,
scooby_state_40d745|16|-1 41,0,0,0,0,0,0,0,0,0,0,0,0,0,0,41,
scooby_state_40d7a1|54|0 41,0,0,0,0,0,0,0,0,0,0,0,0,0,0,41,
scooby_state_40dc5d|39|31 40,0,0,0,0,0,0,0,0,0,0,0,0,0,0,40,
scooby_state_40dc56|11|1 40,0,0,0,0,0,0,0,0,0,0,0,0,0,0,40,
scooby_state_40dc2b|22|1 40,0,0,0,0,0,0,0,0,0,0,0,0,0,0,40,
scooby_state_40dc0f|22|1 40,0,0,0,0,0,0,0,0,0,0,0,0,0,0,40,
scooby_state_40dc0f|21|1 40,0,0,0,0,0,0,0,0,0,0,0,0,0,0,40,
scooby_state_40dc2b|23|1 40,0,0,0,0,0,0,0,0,0,0,0,0,0,0,40,
scooby_state_40daea|11|1 40,0,0,0,0,0,0,0,0,0,0,0,0,0,0,40,
scooby_state_40daea|12|1 40,0,0,0,0,0,0,0,0,0,0,0,0,0,0,40,
scooby_state_40dafa|12|1 40,0,0,0,0,0,0,0,0,0,0,0,0,0,0,40,
scooby_state_40d8c3|10|1 39,0,0,0,0,0,0,0,0,0,0,0,0,0,0,39,
scooby_state_40d5dd|38|16 39,0,0,0,0,0,0,0,0,0,0,0,0,0,0,39,
scooby_state_40d7a1|8|1 39,0,0,0,0,0,0,0,0,0,0,0,0,0,0,39,
scooby_state_40dc5d|33|1 39,0,0,0,0,0,0,0,0,0,0,0,0,0,0,39,
scooby_state_40d685|57|16 39,0,0,0,0,0,0,0,0,0,0,0,0,0,0,39,
scooby_state_40d7c9|11|1 39,0,0,0,0,0,0,0,0,0,0,0,0,0,0,39,
scooby_state_40d8a3|8|1 39,0,0,0,0,0,0,0,0,0,0,0,0,0,0,39,
scooby_state_40d822|10|1 39,0,0,0,0,0,0,0,0,0,0,0,0,0,0,39,
scooby_state_40d5f6|25|-15 39,0,0,0,0,0,0,0,0,0,0,0,0,0,0,39,
scooby_state_40d5dd|44|16 39,0,0,0,0,0,0,0,0,0,0,0,0,0,0,39,
scooby_state_40d5dd|40|16 39,0,0,0,0,0,0,0,0,0,0,0,0,0,0,39,
scooby_state_40d6e3|38|16 38,0,0,0,0,0,0,0,0,0,0,0,0,0,1,39,
scooby_state_40d7c4|9|1 39,0,0,0,0,0,0,0,0,0,0,0,0,0,0,39,
scooby_state_40d453|9|1 39,0,0,0,0,0,0,0,0,0,0,0,0,0,0,39,
scooby_state_40d7a1|10|1 39,0,0,0,0,0,0,0,0,0,0,0,0,0,0,39,
scooby_state_40d947|11|1 39,0,0,0,0,0,0,0,0,0,0,0,0,0,0,39,
scooby_state_40d678|25|-15 39,0,0,0,0,0,0,0,0,0,0,0,0,0,0,39,
scooby_state_40d6da|42|-15 39,0,0,0,0,0,0,0,0,0,0,0,0,0,0,39,
scooby_state_40d924|10|1 39,0,0,0,0,0,0,0,0,0,0,0,0,0,0,39,
scooby_state_40d7a1|7|1 39,0,0,0,0,0,0,0,0,0,0,0,0,0,0,39,
scooby_state_40d685|60|16 39,0,0,0,0,0,0,0,0,0,0,0,0,0,0,39,
scooby_state_40d2de|7|1 39,0,0,0,0,0,0,0,0,0,0,0,0,0,0,39,
scooby_state_40d8a3|12|1 39,0,0,0,0,0,0,0,0,0,0,0,0,0,0,39,
scooby_state_40d2de|12|1 39,0,0,0,0,0,0,0,0,0,0,0,0,0,0,39,
scooby_state_40d65f|39|16 39,0,0,0,0,0,0,0,0,0,0,0,0,0,0,39,
scooby_state_40d5f6|28|-15 39,0,0,0,0,0,0,0,0,0,0,0,0,0,0,39,
scooby_state_40d5fe|58|16 38,0,0,0,0,0,0,0,0,0,0,1,0,0,0,39,
scooby_state_40d7a1|12|1 39,0,0,0,0,0,0,0,0,0,0,0,0,0,0,39,
scooby_state_40d1a3|12|1 39,0,0,0,0,0,0,0,0,0,0,0,0,0,0,39,
scooby_state_40d7a1|9|1 39,0,0,0,0,0,0,0,0,0,0,0,0,0,0,39,
scooby_state_40d678|28|-15 39,0,0,0,0,0,0,0,0,0,0,0,0,0,0,39,
scooby_state_40d2de|11|1 39,0,0,0,0,0,0,0,0,0,0,0,0,0,0,39,
scooby_state_40d685|58|16 39,0,0,0,0,0,0,0,0,0,0,0,0,0,0,39,
scooby_state_40d453|7|1 39,0,0,0,0,0,0,0,0,0,0,0,0,0,0,39,
scooby_state_40d6e3|44|16 39,0,0,0,0,0,0,0,0,0,0,0,0,0,0,39,
scooby_state_40d1a3|11|1 39,0,0,0,0,0,0,0,0,0,0,0,0,0,0,39,
scooby_state_40d2de|10|1 39,0,0,0,0,0,0,0,0,0,0,0,0,0,0,39,
scooby_state_40dc0f|18|1 38,0,0,0,0,1,0,0,0,0,0,0,0,0,0,39,
scooby_state_40d678|27|-15 39,0,0,0,0,0,0,0,0,0,0,0,0,0,0,39,
scooby_state_40d7c9|9|1 39,0,0,0,0,0,0,0,0,0,0,0,0,0,0,39,
scooby_state_40d842|12|1 39,0,0,0,0,0,0,0,0,0,0,0,0,0,0,39,
scooby_state_40dc0f|23|1 39,0,0,0,0,0,0,0,0,0,0,0,0,0,0,39,
scooby_state_40d8c3|11|1 39,0,0,0,0,0,0,0,0,0,0,0,0,0,0,39,
scooby_state_40dc56|8|1 38,0,0,0,0,0,0,1,0,0,0,0,0,0,0,39,
scooby_state_40d8be|8|1 39,0,0,0,0,0,0,0,0,0,0,0,0,0,0,39,
scooby_state_40d6fc|28|-15 39,0,0,0,0,0,0,0,0,0,0,0,0,0,0,39,
scooby_state_40d947|13|1 39,0,0,0,0,0,0,0,0,0,0,0,0,0,0,39,
scooby_state_40d1a3|10|1 39,0,0,0,0,0,0,0,0,0,0,0,0,0,0,39,
scooby_state_40d6e3|43|16 39,0,0,0,0,0,0,0,0,0,0,0,0,0,0,39,
scooby_state_40d8c3|8|1 39,0,0,0,0,0,0,0,0,0,0,0,0,0,0,39,
scooby_state_40dc56|13|1 39,0,0,0,0,0,0,0,0,0,0,0,0,0,0,39,
scooby_state_40d8be|11|1 39,0,0,0,0,0,0,0,0,0,0,0,0,0,0,39,
scooby_state_40d785|53|-6 39,0,0,0,0,0,0,0,0,0,0,0,0,0,0,39,
scooby_state_40dbc5|8|-30 39,0,0,0,0,0,0,0,0,0,0,0,0,0,0,39,
scooby_state_40d947|10|1 39,0,0,0,0,0,0,0,0,0,0,0,0,0,0,39,
scooby_state_40d83d|9|1 38,0,0,0,0,0,1,0,0,0,0,0,0,0,0,39,
scooby_state_40d1a3|7|1 38,0,0,0,0,0,0,0,1,0,0,0,0,0,0,39,
scooby_state_40d6fc|26|-15 39,0,0,0,0,0,0,0,0,0,0,0,0,0,0,39,
scooby_state_40d701|59|16 39,0,0,0,0,0,0,0,0,0,0,0,0,0,0,39,
scooby_state_40d5dd|39|16 39,0,0,0,0,0,0,0,0,0,0,0,0,0,0,39,
scooby_state_40d653|43|-15 39,0,0,0,0,0,0,0,0,0,0,0,0,0,0,39,
scooby_state_40d6fc|27|-15 39,0,0,0,0,0,0,0,0,0,0,0,0,0,0,39,
scooby_state_40d5dd|42|16 39,0,0,0,0,0,0,0,0,0,0,0,0,0,0,39,
scooby_state_40d8be|13|1 39,0,0,0,0,0,0,0,0,0,0,0,0,0,0,39,
scooby_state_40d1a3|9|1 39,0,0,0,0,0,0,0,0,0,0,0,0,0,0,39,
scooby_state_40d5f6|26|-15 39,0,0,0,0,0,0,0,0,0,0,0,0,0,0,39,
scooby_state_40dafa|9|1 39,0,0,0,0,0,0,0,0,0,0,0,0,0,0,39,
scooby_state_40d7c4|10|1 39,0,0,0,0,0,0,0,0,0,0,0,0,0,0,39,
scooby_state_40d94c|11|1 39,0,0,0,0,0,0,0,0,0,0,0,0,0,0,39,
scooby_state_40d65f|40|16 39,0,0,0,0,0,0,0,0,0,0,0,0,0,0,39,
scooby_state_40d822|11|1 39,0,0,0,0,0,0,0,0,0,0,0,0,0,0,39,
scooby_state_40d83d|13|1 39,0,0,0,0,0,0,0,0,0,0,0,0,0,0,39,
scooby_state_40d822|57|0 39,0,0,0,0,0,0,0,0,0,0,0,0,0,0,39,
scooby_state_40d94c|10|1 39,0,0,0,0,0,0,0,0,0,0,0,0,0,0,39,
scooby_state_40d83d|11|1 39,0,0,0,0,0,0,0,0,0,0,0,0,0,0,39,
scooby_state_40d94c|13|1 39,0,0,0,0,0,0,0,0,0,0,0,0,0,0,39,
scooby_state_40d701|58|16 39,0,0,0,0,0,0,0,0,0,0,0,0,0,0,39,
scooby_state_40dafa|8|1 39,0,0,0,0,0,0,0,0,0,0,0,0,0,0,39,
scooby_state_40d7c4|8|1 39,0,0,0,0,0,0,0,0,0,0,0,0,0,0,39,
scooby_state_40d94c|9|1 39,0,0,0,0,0,0,0,0,0,0,0,0,0,0,39,
scooby_state_40d94c|53|0 39,0,0,0,0,0,0,0,0,0,0,0,0,0,0,39,
scooby_state_40d7c9|10|1 38,0,0,0,1,0,0,0,0,0,0,0,0,0,0,39,
scooby_state_40d65f|41|16 39,0,0,0,0,0,0,0,0,0,0,0,0,0,0,39,
scooby_state_40d94c|8|1 39,0,0,0,0,0,0,0,0,0,0,0,0,0,0,39,
scooby_state_40d822|9|1 39,0,0,0,0,0,0,0,0,0,0,0,0,0,0,39,
scooby_state_40daea|8|1 39,0,0,0,0,0,0,0,0,0,0,0,0,0,0,39,
scooby_state_40dc56|10|1 39,0,0,0,0,0,0,0,0,0,0,0,0,0,0,39,
scooby_state_40d8be|9|1 39,0,0,0,0,0,0,0,0,0,0,0,0,0,0,39,
scooby_state_40d8a3|10|1 39,0,0,0,0,0,0,0,0,0,0,0,0,0,0,39,
scooby_state_40d453|8|1 39,0,0,0,0,0,0,0,0,0,0,0,0,0,0,39,
scooby_state_40d2de|9|1 39,0,0,0,0,0,0,0,0,0,0,0,0,0,0,39,
scooby_state_40d1a3|8|1 39,0,0,0,0,0,0,0,0,0,0,0,0,0,0,39,
scooby_state_40d678|23|-15 39,0,0,0,0,0,0,0,0,0,0,0,0,0,0,39,
scooby_state_40d5f6|24|-15 39,0,0,0,0,0,0,0,0,0,0,0,0,0,0,39,
scooby_state_40d7c4|11|1 39,0,0,0,0,0,0,0,0,0,0,0,0,0,0,39,
scooby_state_40da3b|9|1 39,0,0,0,0,0,0,0,0,0,0,0,0,0,0,39,
scooby_state_40d5cc|43|-15 39,0,0,0,0,0,0,0,0,0,0,0,0,0,0,39,
scooby_state_40d6e3|41|16 39,0,0,0,0,0,0,0,0,0,0,0,0,0,0,39,
scooby_state_40d5fe|56|16 39,0,0,0,0,0,0,0,0,0,0,0,0,0,0,39,
scooby_state_40d653|44|-15 39,0,0,0,0,0,0,0,0,0,0,0,0,0,0,39,
scooby_state_40d842|10|1 39,0,0,0,0,0,0,0,0,0,0,0,0,0,0,39,
scooby_state_40d7c4|12|1 39,0,0,0,0,0,0,0,0,0,0,0,0,0,0,39,
scooby_state_40d6da|41|-15 39,0,0,0,0,0,0,0,0,0,0,0,0,0,0,39,
scooby_state_40d83d|8|1 39,0,0,0,0,0,0,0,0,0,0,0,0,0,0,39,
scooby_state_40d65f|38|16 39,0,0,0,0,0,0,0,0,0,0,0,0,0,0,39,
scooby_state_40d947|8|1 39,0,0,0,0,0,0,0,0,0,0,0,0,0,0,39,
scooby_state_40dc56|12|1 39,0,0,0,0,0,0,0,0,0,0,0,0,0,0,39,
scooby_state_40d924|8|1 39,0,0,0,0,0,0,0,0,0,0,0,0,0,0,39,
scooby_state_40d842|9|1 38,0,1,0,0,0,0,0,0,0,0,0,0,0,0,39,
scooby_state_40dc2b|21|1 39,0,0,0,0,0,0,0,0,0,0,0,0,0,0,39,
scooby_state_40d8c3|9|1 39,0,0,0,0,0,0,0,0,0,0,0,0,0,0,39,
scooby_state_40daea|9|1 39,0,0,0,0,0,0,0,0,0,0,0,0,0,0,39,
scooby_state_40d6e3|39|16 39,0,0,0,0,0,0,0,0,0,0,0,0,0,0,39,
scooby_state_40d7c9|8|1 39,0,0,0,0,0,0,0,0,0,0,0,0,0,0,39,
scooby_state_40d7c9|10|0 39,0,0,0,0,0,0,0,0,0,0,0,0,0,0,39,
scooby_state_40d5cc|44|-15 39,0,0,0,0,0,0,0,0,0,0,0,0,0,0,39,
scooby_state_40d7c4|13|1 39,0,0,0,0,0,0,0,0,0,0,0,0,0,0,39,
scooby_state_40dc0f|20|1 39,0,0,0,0,0,0,0,0,0,0,0,0,0,0,39,
scooby_state_40d8a3|11|1 38,0,0,0,0,0,0,1,0,0,0,0,0,0,0,39,
scooby_state_40d5f6|27|-15 39,0,0,0,0,0,0,0,0,0,0,0,0,0,0,39,
scooby_state_40d5dd|41|16 39,0,0,0,0,0,0,0,0,0,0,0,0,0,0,39,
scooby_state_40d678|24|-15 39,0,0,0,0,0,0,0,0,0,0,0,0,0,0,39,
scooby_state_40d822|7|1 39,0,0,0,0,0,0,0,0,0,0,0,0,0,0,39,
scooby_state_40d842|11|1 39,0,0,0,0,0,0,0,0,0,0,0,0,0,0,39,
scooby_state_40d6da|43|-15 39,0,0,0,0,0,0,0,0,0,0,0,0,0,0,39,
scooby_state_40d701|56|16 39,0,0,0,0,0,0,0,0,0,0,0,0,0,0,39,
scooby_state_40d65f|42|16 39,0,0,0,0,0,0,0,0,0,0,0,0,0,0,39,
scooby_state_40d653|42|-15 39,0,0,0,0,0,0,0,0,0,0,0,0,0,0,39,
scooby_state_40d678|26|-15 39,0,0,0,0,0,0,0,0,0,0,0,0,0,0,39,
scooby_state_40d8c3|13|1 39,0,0,0,0,0,0,0,0,0,0,0,0,0,0,39,
scooby_state_40d947|12|1 39,0,0,0,0,0,0,0,0,0,0,0,0,0,0,39,
scooby_state_40dc2b|20|1 39,0,0,0,0,0,0,0,0,0,0,0,0,0,0,39,
scooby_state_40d7a1|11|1 39,0,0,0,0,0,0,0,0,0,0,0,0,0,0,39,
scooby_state_40d685|56|16 39,0,0,0,0,0,0,0,0,0,0,0,0,0,0,39,
scooby_state_40d5cc|42|-15 38,0,0,1,0,0,0,0,0,0,0,0,0,0,0,39,
scooby_state_40d8c3|12|1 39,0,0,0,0,0,0,0,0,0,0,0,0,0,0,39,
scooby_state_40d842|13|1 39,0,0,0,0,0,0,0,0,0,0,0,0,0,0,39,
scooby_state_40d8be|12|1 39,0,0,0,0,0,0,0,0,0,0,0,0,0,0,39,
scooby_state_40d822|8|1 39,0,0,0,0,0,0,0,0,0,0,0,0,0,0,39,
scooby_state_40d5fe|60|16 39,0,0,0,0,0,0,0,0,0,0,0,0,0,0,39,
scooby_state_40d924|11|1 39,0,0,0,0,0,0,0,0,0,0,0,0,0,0,39,
scooby_state_40d5dd|43|16 39,0,0,0,0,0,0,0,0,0,0,0,0,0,0,39,
scooby_state_40d653|40|-15 38,0,0,0,0,0,0,0,0,0,1,0,0,0,0,39,
scooby_state_40d701|57|16 39,0,0,0,0,0,0,0,0,0,0,0,0,0,0,39,
scooby_state_40d65f|43|16 39,0,0,0,0,0,0,0,0,0,0,0,0,0,0,39,
scooby_state_40d947|9|1 39,0,0,0,0,0,0,0,0,0,0,0,0,0,0,39,
scooby_state_40d842|8|1 39,0,0,0,0,0,0,0,0,0,0,0,0,0,0,39,
scooby_state_40d5fe|57|16 39,0,0,0,0,0,0,0,0,0,0,0,0,0,0,39,
scooby_state_40d822|12|1 39,0,0,0,0,0,0,0,0,0,0,0,0,0,0,39,
scooby_state_40daea|10|1 39,0,0,0,0,0,0,0,0,0,0,0,0,0,0,39,
scooby_state_40d94c|12|1 39,0,0,0,0,0,0,0,0,0,0,0,0,0,0,39,
scooby_state_40d5cc|40|-15 39,0,0,0,0,0,0,0,0,0,0,0,0,0,0,39,
scooby_state_40d65f|44|16 39,0,0,0,0,0,0,0,0,0,0,0,0,0,0,39,
scooby_state_40d2de|8|1 39,0,0,0,0,0,0,0,0,0,0,0,0,0,0,39,
scooby_state_40d6e3|40|16 39,0,0,0,0,0,0,0,0,0,0,0,0,0,0,39,
scooby_state_40d6fc|24|-15 39,0,0,0,0,0,0,0,0,0,0,0,0,0,0,39,
scooby_state_40d8a3|9|1 39,0,0,0,0,0,0,0,0,0,0,0,0,0,0,39,
scooby_state_40d7c9|12|1 38,0,1,0,0,0,0,0,0,0,0,0,0,0,0,39,
scooby_state_40d653|41|-15 39,0,0,0,0,0,0,0,0,0,0,0,0,0,0,39,
scooby_state_40d924|7|1 38,0,0,0,0,1,0,0,0,0,0,0,0,0,0,39,
scooby_state_40dc2b|18|1 39,0,0,0,0,0,0,0,0,0,0,0,0,0,0,39,
scooby_state_40d5cc|41|-15 39,0,0,0,0,0,0,0,0,0,0,0,0,0,0,39,
scooby_state_40d6e3|42|16 39,0,0,0,0,0,0,0,0,0,0,0,0,0,0,39,
scooby_state_40d685|59|16 39,0,0,0,0,0,0,0,0,0,0,0,0,0,0,39,
scooby_state_40d83d|10|1 39,0,0,0,0,0,0,0,0,0,0,0,0,0,0,39,
scooby_state_40d7c9|13|1 39,0,0,0,0,0,0,0,0,0,0,0,0,0,0,39,
scooby_state_40da40|12|3 39,0,0,0,0,0,0,0,0,0,0,0,0,0,0,39,
scooby_state_40d6da|44|-15 39,0,0,0,0,0,0,0,0,0,0,0,0,0,0,39,
scooby_state_40d8a3|7|1 39,0,0,0,0,0,0,0,0,0,0,0,0,0,0,39,
scooby_state_40da34|8|-3 39,0,0,0,0,0,0,0,0,0,0,0,0,0,0,39,
scooby_state_40d8be|10|1 39,0,0,0,0,0,0,0,0,0,0,0,0,0,0,39,
scooby_state_40d6da|40|-15 39,0,0,0,0,0,0,0,0,0,0,0,0,0,0,39,
scooby_state_40dc2b|19|1 39,0,0,0,0,0,0,0,0,0,0,0,0,0,0,39,
scooby_state_40d6fc|25|-15 39,0,0,0,0,0,0,0,0,0,0,0,0,0,0,39,
scooby_state_40d83d|12|1 39,0,0,0,0,0,0,0,0,0,0,0,0,0,0,39,
scooby_state_40d6fc|23|-15 39,0,0,0,0,0,0,0,0,0,0,0,0,0,0,39,
scooby_state_40d701|60|16 39,0,0,0,0,0,0,0,0,0,0,0,0,0,0,39,
scooby_state_40d5f6|23|-15 39,0,0,0,0,0,0,0,0,0,0,0,0,0,0,39,
scooby_state_40dc0f|17|1 39,0,0,0,0,0,0,0,0,0,0,0,0,0,0,39,
scooby_state_40d924|9|1 39,0,0,0,0,0,0,0,0,0,0,0,0,0,0,39,
scooby_state_40d924|12|1 39,0,0,0,0,0,0,0,0,0,0,0,0,0,0,39,
scooby_state_40dc0f|19|1 39,0,0,0,0,0,0,0,0,0,0,0,0,0,0,39,
scooby_state_40d5fe|59|16 39,0,0,0,0,0,0,0,0,0,0,0,0,0,0,39,
scooby_state_40d701|55|16 38,0,0,0,0,0,0,0,0,0,0,0,0,0,0,38,
scooby_state_40d453|12|1 38,0,0,0,0,0,0,0,0,0,0,0,0,0,0,38,
scooby_state_40dc2b|17|1 38,0,0,0,0,0,0,0,0,0,0,0,0,0,0,38,
scooby_state_40d5f6|22|-15 38,0,0,0,0,0,0,0,0,0,0,0,0,0,0,38,
scooby_state_40d924|13|1 38,0,0,0,0,0,0,0,0,0,0,0,0,0,0,38,
scooby_state_40d453|10|1 38,0,0,0,0,0,0,0,0,0,0,0,0,0,0,38,
scooby_state_40d822|13|1 38,0,0,0,0,0,0,0,0,0,0,0,0,0,0,38,
scooby_state_40d6fc|22|-15 38,0,0,0,0,0,0,0,0,0,0,0,0,0,0,38,
scooby_state_40d2de|13|1 38,0,0,0,0,0,0,0,0,0,0,0,0,0,0,38,
scooby_state_40d7a1|13|1 38,0,0,0,0,0,0,0,0,0,0,0,0,0,0,38,
scooby_state_40d7c9|14|1 38,0,0,0,0,0,0,0,0,0,0,0,0,0,0,38,
scooby_state_40d685|55|16 38,0,0,0,0,0,0,0,0,0,0,0,0,0,0,38,
scooby_state_40d8c3|14|1 38,0,0,0,0,0,0,0,0,0,0,0,0,0,0,38,
scooby_state_40d453|13|1 38,0,0,0,0,0,0,0,0,0,0,0,0,0,0,38,
scooby_state_40d94c|14|1 38,0,0,0,0,0,0,0,0,0,0,0,0,0,0,38,
scooby_state_40dafa|7|1 38,0,0,0,0,0,0,0,0,0,0,0,0,0,0,38,
scooby_state_40d5cc|39|-15 37,0,0,0,0,0,1,0,0,0,0,0,0,0,0,38,
scooby_state_40d6da|45|-15 38,0,0,0,0,0,0,0,0,0,0,0,0,0,0,38,
scooby_state_40d842|14|1 38,0,0,0,0,0,0,0,0,0,0,0,0,0,0,38,
scooby_state_40d947|7|1 38,0,0,0,0,0,0,0,0,0,0,0,0,0,0,38,
scooby_state_40d8a3|13|1 38,0,0,0,0,0,0,0,0,0,0,0,0,0,0,38,
scooby_state_40d1ed|45|-18 38,0,0,0,0,0,0,0,0,0,0,0,0,0,0,38,
scooby_state_40d5fe|55|16 38,0,0,0,0,0,0,0,0,0,0,0,0,0,0,38,
scooby_state_40d453|11|1 38,0,0,0,0,0,0,0,0,0,0,0,0,0,0,38,
scooby_state_40d653|39|-15 38,0,0,0,0,0,0,0,0,0,0,0,0,0,0,38,
scooby_state_40d7c4|7|1 38,0,0,0,0,0,0,0,0,0,0,0,0,0,0,38,
scooby_state_40d83d|7|1 38,0,0,0,0,0,0,0,0,0,0,0,0,0,0,38,
scooby_state_40dc2b|24|1 38,0,0,0,0,0,0,0,0,0,0,0,0,0,0,38,
scooby_state_40dc56|14|1 38,0,0,0,0,0,0,0,0,0,0,0,0,0,0,38,
scooby_state_40d5cc|45|-15 38,0,0,0,0,0,0,0,0,0,0,0,0,0,0,38,
scooby_state_40d8be|7|1 37,0,0,0,0,0,1,0,0,0,0,0,0,0,0,38,
scooby_state_40d1a3|13|1 38,0,0,0,0,0,0,0,0,0,0,0,0,0,0,38,
scooby_state_40d653|45|-15 38,0,0,0,0,0,0,0,0,0,0,0,0,0,0,38,
scooby_state_40d6da|39|-15 38,0,0,0,0,0,0,0,0,0,0,0,0,0,0,38,
scooby_state_40d678|22|-15 38,0,0,0,0,0,0,0,0,0,0,0,0,0,0,38,
scooby_state_40d5fe|61|16 37,0,0,0,0,0,0,0,0,0,0,0,0,0,0,37,
scooby_state_40da5f|19|2 37,0,0,0,0,0,0,0,0,0,0,0,0,0,0,37,
scooby_state_40dafa|11|1 37,0,0,0,0,0,0,0,0,0,0,0,0,0,0,37,
scooby_state_40d7c9|7|1 37,0,0,0,0,0,0,0,0,0,0,0,0,0,0,37,
scooby_state_40dafa|10|1 37,0,0,0,0,0,0,0,0,0,0,0,0,0,0,37,
scooby_state_40d5f6|29|-15 37,0,0,0,0,0,0,0,0,0,0,0,0,0,0,37,
scooby_state_40d83d|14|1 37,0,0,0,0,0,0,0,0,0,0,0,0,0,0,37,
scooby_state_40dc56|6|1 37,0,0,0,0,0,0,0,0,0,0,0,0,0,0,37,
scooby_state_40d842|7|1 37,0,0,0,0,0,0,0,0,0,0,0,0,0,0,37,
scooby_state_40d685|61|16 37,0,0,0,0,0,0,0,0,0,0,0,0,0,0,37,
scooby_state_40d701|61|16 37,0,0,0,0,0,0,0,0,0,0,0,0,0,0,37,
scooby_state_40d924|6|1 37,0,0,0,0,0,0,0,0,0,0,0,0,0,0,37,
scooby_state_40d6e3|37|16 37,0,0,0,0,0,0,0,0,0,0,0,0,0,0,37,
scooby_state_40d3d6|11|1 37,0,0,0,0,0,0,0,0,0,0,0,0,0,0,37,
scooby_state_40dc0f|16|1 37,0,0,0,0,0,0,0,0,0,0,0,0,0,0,37,
scooby_state_40d5dd|45|16 37,0,0,0,0,0,0,0,0,0,0,0,0,0,0,37,
scooby_state_40d678|29|-15 37,0,0,0,0,0,0,0,0,0,0,0,0,0,0,37,
scooby_state_40d5dd|37|16 37,0,0,0,0,0,0,0,0,0,0,0,0,0,0,37,
scooby_state_40d6e3|45|16 37,0,0,0,0,0,0,0,0,0,0,0,0,0,0,37,
scooby_state_40d947|14|1 36,0,0,0,0,0,0,0,0,0,0,0,1,0,0,37,
scooby_state_40d7c4|14|1 37,0,0,0,0,0,0,0,0,0,0,0,0,0,0,37,
scooby_state_40daea|7|1 37,0,0,0,0,0,0,0,0,0,0,0,0,0,0,37,
scooby_state_40d7a1|6|1 37,0,0,0,0,0,0,0,0,0,0,0,0,0,0,37,
scooby_state_40d6fc|29|-15 37,0,0,0,0,0,0,0,0,0,0,0,0,0,0,37,
scooby_state_40d65f|37|16 37,0,0,0,0,0,0,0,0,0,0,0,0,0,0,37,
scooby_state_40d65f|45|16 37,0,0,0,0,0,0,0,0,0,0,0,0,0,0,37,
scooby_state_40d94c|56|0 37,0,0,0,0,0,0,0,0,0,0,0,0,0,0,37,
scooby_state_40d8a3|6|1 36,1,0,0,0,0,0,0,0,0,0,0,0,0,0,37,
scooby_state_40d3d6|9|1 37,0,0,0,0,0,0,0,0,0,0,0,0,0,0,37,
scooby_state_40d2de|6|1 37,0,0,0,0,0,0,0,0,0,0,0,0,0,0,37,
scooby_state_40d94c|7|1 37,0,0,0,0,0,0,0,0,0,0,0,0,0,0,37,
scooby_state_40d1a3|6|1 37,0,0,0,0,0,0,0,0,0,0,0,0,0,0,37,
scooby_state_40d8be|14|1 37,0,0,0,0,0,0,0,0,0,0,0,0,0,0,37,
scooby_state_40d822|6|1 37,0,0,0,0,0,0,0,0,0,0,0,0,0,0,37,
scooby_state_40d3d6|8|1 37,0,0,0,0,0,0,0,0,0,0,0,0,0,0,37,
scooby_state_40d7c9|50|0 37,0,0,0,0,0,0,0,0,0,0,0,0,0,0,37,
scooby_state_40d8c3|7|1 37,0,0,0,0,0,0,0,0,0,0,0,0,0,0,37,
scooby_state_40d3d6|13|1 36,0,0,0,0,0,0,0,0,0,0,0,0,0,0,36,
scooby_state_40dd3e|9|-5 36,0,0,0,0,0,0,0,0,0,0,0,0,0,0,36,
scooby_state_40d685|54|16 36,0,0,0,0,0,0,0,0,0,0,0,0,0,0,36,
scooby_state_40dc1c|1|1 36,0,0,0,0,0,0,0,0,0,0,0,0,0,0,36,
scooby_state_40d842|11|0 35,1,0,0,0,0,0,0,0,0,0,0,0,0,0,36,
scooby_state_40dac0|22|16 36,0,0,0,0,0,0,0,0,0,0,0,0,0,0,36,
scooby_state_40dd4f|14|2 36,0,0,0,0,0,0,0,0,0,0,0,0,0,0,36,
scooby_state_40d453|6|1 36,0,0,0,0,0,0,0,0,0,0,0,0,0,0,36,
scooby_state_40d421|59|4 36,0,0,0,0,0,0,0,0,0,0,0,0,0,0,36,
scooby_state_40d3b2|14|-19 36,0,0,0,0,0,0,0,0,0,0,0,0,0,0,36,
scooby_state_40dc5d|37|31 36,0,0,0,0,0,0,0,0,0,0,0,0,0,0,36,
scooby_state_40d3d6|12|1 36,0,0,0,0,0,0,0,0,0,0,0,0,0,0,36,
scooby_state_40d887|60|3 36,0,0,0,0,0,0,0,0,0,0,0,0,0,0,36,
scooby_state_40d5fe|54|16 36,0,0,0,0,0,0,0,0,0,0,0,0,0,0,36,
scooby_state_40d701|54|16 36,0,0,0,0,0,0,0,0,0,0,0,0,0,0,36,
scooby_state_40dc0f|24|1 36,0,0,0,0,0,0,0,0,0,0,0,0,0,0,36,
scooby_state_40d979|17|1 34,0,0,0,0,0,0,0,0,0,1,0,0,0,0,35,
scooby_state_40d8be|6|1 35,0,0,0,0,0,0,0,0,0,0,0,0,0,0,35,
scooby_state_40d3d6|7|1 34,0,0,0,0,0,0,0,0,1,0,0,0,0,0,35,
scooby_state_40db49|6|1 34,0,0,0,1,0,0,0,0,0,0,0,0,0,0,35,
scooby_state_40d6da|46|-15 35,0,0,0,0,0,0,0,0,0,0,0,0,0,0,35,
scooby_state_40dc5d|38|31 35,0,0,0,0,0,0,0,0,0,0,0,0,0,0,35,
scooby_state_40dc5d|32|1 35,0,0,0,0,0,0,0,0,0,0,0,0,0,0,35,
scooby_state_40d6fc|21|-15 35,0,0,0,0,0,0,0,0,0,0,0,0,0,0,35,
scooby_state_40d924|14|1 35,0,0,0,0,0,0,0,0,0,0,0,0,0,0,35,
scooby_state_40d947|6|1 35,0,0,0,0,0,0,0,0,0,0,0,0,0,0,35,
scooby_state_40d8a3|14|1 35,0,0,0,0,0,0,0,0,0,0,0,0,0,0,35,
scooby_state_40d5cc|46|-15 35,0,0,0,0,0,0,0,0,0,0,0,0,0,0,35,
scooby_state_40d653|38|-15 35,0,0,0,0,0,0,0,0,0,0,0,0,0,0,35,
scooby_state_40dc56|15|1 35,0,0,0,0,0,0,0,0,0,0,0,0,0,0,35,
scooby_state_40d6da|38|-15 35,0,0,0,0,0,0,0,0,0,0,0,0,0,0,35,
scooby_state_40dc2b|16|1 35,0,0,0,0,0,0,0,0,0,0,0,0,0,0,35,
scooby_state_40d2de|14|1 35,0,0,0,0,0,0,0,0,0,0,0,0,0,0,35,
scooby_state_40d7c9|53|0 35,0,0,0,0,0,0,0,0,0,0,0,0,0,0,35,
scooby_state_40dafa|6|1 35,0,0,0,0,0,0,0,0,0,0,0,0,0,0,35,
scooby_state_40dc1c|2|1 35,0,0,0,0,0,0,0,0,0,0,0,0,0,0,35,
scooby_state_40d83d|6|1 35,0,0,0,0,0,0,0,0,0,0,0,0,0,0,35,
scooby_state_40d7c9|15|1 35,0,0,0,0,0,0,0,0,0,0,0,0,0,0,35,
scooby_state_40dcae|47|1 35,0,0,0,0,0,0,0,0,0,0,0,0,0,0,35,
scooby_state_40d94c|15|1 35,0,0,0,0,0,0,0,0,0,0,0,0,0,0,35,
scooby_state_40d8c3|15|1 35,0,0,0,0,0,0,0,0,0,0,0,0,0,0,35,
scooby_state_40d6e3|36|16 35,0,0,0,0,0,0,0,0,0,0,0,0,0,0,35,
scooby_state_40d842|15|1 35,0,0,0,0,0,0,0,0,0,0,0,0,0,0,35,
scooby_state_40d7a1|14|1 35,0,0,0,0,0,0,0,0,0,0,0,0,0,0,35,
scooby_state_40d453|14|1 35,0,0,0,0,0,0,0,0,0,0,0,0,0,0,35,
scooby_state_40dc2b|25|1 35,0,0,0,0,0,0,0,0,0,0,0,0,0,0,35,
scooby_state_40d7c4|6|1 35,0,0,0,0,0,0,0,0,0,0,0,0,0,0,35,
scooby_state_40d1a9|63|1 35,0,0,0,0,0,0,0,0,0,0,0,0,0,0,35,
scooby_state_40d822|14|1 35,0,0,0,0,0,0,0,0,0,0,0,0,0,0,35,
scooby_state_40d653|46|-15 35,0,0,0,0,0,0,0,0,0,0,0,0,0,0,35,
scooby_state_40dccb|40|1 35,0,0,0,0,0,0,0,0,0,0,0,0,0,0,35,
scooby_state_40d1a3|14|1 34,0,0,0,0,0,0,0,0,0,1,0,0,0,0,35,
scooby_state_40d5cc|38|-15 35,0,0,0,0,0,0,0,0,0,0,0,0,0,0,35,
scooby_state_40d8a3|11|0 34,0,0,0,0,0,0,0,0,0,0,0,0,0,0,34,
scooby_state_40d701|62|16 34,0,0,0,0,0,0,0,0,0,0,0,0,0,0,34,
scooby_state_40dc56|5|1 34,0,0,0,0,0,0,0,0,0,0,0,0,0,0,34,
scooby_state_40d35c|17|-1 34,0,0,0,0,0,0,0,0,0,0,0,0,0,0,34,
scooby_state_40d7c4|15|1 34,0,0,0,0,0,0,0,0,0,0,0,0,0,0,34,
scooby_state_40dcae|40|1 34,0,0,0,0,0,0,0,0,0,0,0,0,0,0,34,
scooby_state_40d5f6|21|-15 33,0,0,0,1,0,0,0,0,0,0,0,0,0,0,34,
scooby_state_40dc2b|26|1 34,0,0,0,0,0,0,0,0,0,0,0,0,0,0,34,
scooby_state_40d678|21|-15 34,0,0,0,0,0,0,0,0,0,0,0,0,0,0,34,
scooby_state_40d7a1|57|0 34,0,0,0,0,0,0,0,0,0,0,0,0,0,0,34,
scooby_state_40dafa|13|1 34,0,0,0,0,0,0,0,0,0,0,0,0,0,0,34,
scooby_state_40dc2b|27|1 34,0,0,0,0,0,0,0,0,0,0,0,0,0,0,34,
scooby_state_40dc0f|25|1 33,0,0,1,0,0,0,0,0,0,0,0,0,0,0,34,
scooby_state_40d453|5|1 33,0,0,0,0,0,0,0,0,0,0,0,0,0,1,34,
scooby_state_40d8be|15|1 34,0,0,0,0,0,0,0,0,0,0,0,0,0,0,34,
scooby_state_40d3d6|6|1 34,0,0,0,0,0,0,0,0,0,0,0,0,0,0,34,
scooby_state_40dc0f|26|1 34,0,0,0,0,0,0,0,0,0,0,0,0,0,0,34,
scooby_state_40d3d6|10|1 34,0,0,0,0,0,0,0,0,0,0,0,0,0,0,34,
scooby_state_40d94c|0|0 34,0,0,0,0,0,0,0,0,0,0,0,0,0,0,34,
scooby_state_40dcae|54|1 34,0,0,0,0,0,0,0,0,0,0,0,0,0,0,34,
scooby_state_40d65f|46|16 34,0,0,0,0,0,0,0,0,0,0,0,0,0,0,34,
scooby_state_40db39|11|1 34,0,0,0,0,0,0,0,0,0,0,0,0,0,0,34,
scooby_state_40d6e3|46|16 34,0,0,0,0,0,0,0,0,0,0,0,0,0,0,34,
scooby_state_40d83d|15|1 34,0,0,0,0,0,0,0,0,0,0,0,0,0,0,34,
scooby_state_40d947|15|1 34,0,0,0,0,0,0,0,0,0,0,0,0,0,0,34,
scooby_state_40dafa|15|1 34,0,0,0,0,0,0,0,0,0,0,0,0,0,0,34,
scooby_state_40dcae|46|1 34,0,0,0,0,0,0,0,0,0,0,0,0,0,0,34,
scooby_state_40d8c3|10|0 34,0,0,0,0,0,0,0,0,0,0,0,0,0,0,34,
scooby_state_40db39|12|1 34,0,0,0,0,0,0,0,0,0,0,0,0,0,0,34,
scooby_state_40dc0f|27|1 34,0,0,0,0,0,0,0,0,0,0,0,0,0,0,34,
scooby_state_40d5dd|46|16 34,0,0,0,0,0,0,0,0,0,0,0,0,0,0,34,
scooby_state_40d678|30|-15 32,0,0,0,0,1,0,0,0,0,0,0,0,0,0,33,
scooby_state_40d701|63|16 33,0,0,0,0,0,0,0,0,0,0,0,0,0,0,33,
scooby_state_40d947|16|1 33,0,0,0,0,0,0,0,0,0,0,0,0,0,0,33,
scooby_state_40d7c9|16|1 32,1,0,0,0,0,0,0,0,0,0,0,0,0,0,33,
scooby_state_40d2de|17|1 33,0,0,0,0,0,0,0,0,0,0,0,0,0,0,33,
scooby_state_40d2de|16|1 33,0,0,0,0,0,0,0,0,0,0,0,0,0,0,33,
scooby_state_40d65f|36|16 33,0,0,0,0,0,0,0,0,0,0,0,0,0,0,33,
scooby_state_40d924|5|1 33,0,0,0,0,0,0,0,0,0,0,0,0,0,0,33,
scooby_state_40d94c|18|1 33,0,0,0,0,0,0,0,0,0,0,0,0,0,0,33,
scooby_state_40d1a3|5|1 33,0,0,0,0,0,0,0,0,0,0,0,0,0,0,33,
scooby_state_40d822|16|1 32,0,0,0,0,0,0,0,1,0,0,0,0,0,0,33,
scooby_state_40db39|8|1 33,0,0,0,0,0,0,0,0,0,0,0,0,0,0,33,
scooby_state_40d7a1|16|1 33,0,0,0,0,0,0,0,0,0,0,0,0,0,0,33,
scooby_state_40db49|15|1 33,0,0,0,0,0,0,0,0,0,0,0,0,0,0,33,
scooby_state_40daea|13|1 33,0,0,0,0,0,0,0,0,0,0,0,0,0,0,33,
scooby_state_40d685|62|16 33,0,0,0,0,0,0,0,0,0,0,0,0,0,0,33,
scooby_state_40d83d|16|1 33,0,0,0,0,0,0,0,0,0,0,0,0,0,0,33,
scooby_state_40d8a3|16|1 33,0,0,0,0,0,0,0,0,0,0,0,0,0,0,33,
scooby_state_40d2de|15|1 33,0,0,0,0,0,0,0,0,0,0,0,0,0,0,33,
scooby_state_40d8be|17|1 33,0,0,0,0,0,0,0,0,0,0,0,0,0,0,33,
scooby_state_40d1a3|15|1 33,0,0,0,0,0,0,0,0,0,0,0,0,0,0,33,
scooby_state_40d7a1|50|0 33,0,0,0,0,0,0,0,0,0,0,0,0,0,0,33,
scooby_state_40d842|16|1 33,0,0,0,0,0,0,0,0,0,0,0,0,0,0,33,
scooby_state_40d8a3|5|1 33,0,0,0,0,0,0,0,0,0,0,0,0,0,0,33,
scooby_state_40d842|17|1 33,0,0,0,0,0,0,0,0,0,0,0,0,0,0,33,
scooby_state_40d822|5|1 33,0,0,0,0,0,0,0,0,0,0,0,0,0,0,33,
scooby_state_40dcae|55|1 33,0,0,0,0,0,0,0,0,0,0,0,0,0,0,33,
scooby_state_40d822|17|1 33,0,0,0,0,0,0,0,0,0,0,0,0,0,0,33,
scooby_state_40d94c|17|1 33,0,0,0,0,0,0,0,0,0,0,0,0,0,0,33,
scooby_state_40d8be|16|1 33,0,0,0,0,0,0,0,0,0,0,0,0,0,0,33,
scooby_state_40d94c|16|1 33,0,0,0,0,0,0,0,0,0,0,0,0,0,0,33,
scooby_state_40d8c3|16|1 33,0,0,0,0,0,0,0,0,0,0,0,0,0,0,33,
scooby_state_40d7a1|5|1 33,0,0,0,0,0,0,0,0,0,0,0,0,0,0,33,
scooby_state_40d7c9|6|1 33,0,0,0,0,0,0,0,0,0,0,0,0,0,0,33,
scooby_state_40d8c3|6|1 33,0,0,0,0,0,0,0,0,0,0,0,0,0,0,33,
scooby_state_40dafa|18|1 33,0,0,0,0,0,0,0,0,0,0,0,0,0,0,33,
scooby_state_40d94c|6|1 33,0,0,0,0,0,0,0,0,0,0,0,0,0,0,33,
scooby_state_40d8a3|15|1 33,0,0,0,0,0,0,0,0,0,0,0,0,0,0,33,
scooby_state_40d7c4|18|1 33,0,0,0,0,0,0,0,0,0,0,0,0,0,0,33,
scooby_state_40dc2b|28|1 33,0,0,0,0,0,0,0,0,0,0,0,0,0,0,33,
scooby_state_40d7c4|16|1 33,0,0,0,0,0,0,0,0,0,0,0,0,0,0,33,
scooby_state_40d7a1|17|1 33,0,0,0,0,0,0,0,0,0,0,0,0,0,0,33,
scooby_state_40d83d|17|1 33,0,0,0,0,0,0,0,0,0,0,0,0,0,0,33,
scooby_state_40d1a3|16|1 33,0,0,0,0,0,0,0,0,0,0,0,0,0,0,33,
scooby_state_40d842|18|1 33,0,0,0,0,0,0,0,0,0,0,0,0,0,0,33,
scooby_state_40d8a3|17|1 33,0,0,0,0,0,0,0,0,0,0,0,0,0,0,33,
scooby_state_40d924|17|1 33,0,0,0,0,0,0,0,0,0,0,0,0,0,0,33,
scooby_state_40db49|9|1 33,0,0,0,0,0,0,0,0,0,0,0,0,0,0,33,
scooby_state_40d924|16|1 33,0,0,0,0,0,0,0,0,0,0,0,0,0,0,33,
scooby_state_40d83d|18|1 33,0,0,0,0,0,0,0,0,0,0,0,0,0,0,33,
scooby_state_40d822|15|1 33,0,0,0,0,0,0,0,0,0,0,0,0,0,0,33,
scooby_state_40d8c3|17|1 33,0,0,0,0,0,0,0,0,0,0,0,0,0,0,33,
scooby_state_40daea|6|1 33,0,0,0,0,0,0,0,0,0,0,0,0,0,0,33,
scooby_state_40d7c4|17|1 33,0,0,0,0,0,0,0,0,0,0,0,0,0,0,33,
scooby_state_40d2de|5|1 33,0,0,0,0,0,0,0,0,0,0,0,0,0,0,33,
scooby_state_40d5fe|62|16 33,0,0,0,0,0,0,0,0,0,0,0,0,0,0,33,
scooby_state_40d947|18|1 33,0,0,0,0,0,0,0,0,0,0,0,0,0,0,33,
scooby_state_40d7a1|15|1 33,0,0,0,0,0,0,0,0,0,0,0,0,0,0,33,
scooby_state_40d1a3|17|1 33,0,0,0,0,0,0,0,0,0,0,0,0,0,0,33,
scooby_state_40d6fc|30|-15 32,0,0,0,0,0,0,0,0,0,0,1,0,0,0,33,
scooby_state_40d842|6|1 33,0,0,0,0,0,0,0,0,0,0,0,0,0,0,33,
scooby_state_40d924|15|1 33,0,0,0,0,0,0,0,0,0,0,0,0,0,0,33,
scooby_state_40d7c9|17|1 33,0,0,0,0,0,0,0,0,0,0,0,0,0,0,33,
scooby_state_40d7c9|18|1 33,0,0,0,0,0,0,0,0,0,0,0,0,0,0,33,
scooby_state_40d8be|18|1 33,0,0,0,0,0,0,0,0,0,0,0,0,0,0,33,
scooby_state_40d947|17|1 33,0,0,0,0,0,0,0,0,0,0,0,0,0,0,33,
scooby_state_40d7c4|45|0 33,0,0,0,0,0,0,0,0,0,0,0,0,0,0,33,
scooby_state_40d7a1|60|0 33,0,0,0,0,0,0,0,0,0,0,0,0,0,0,33,
scooby_state_40d5f6|30|-15 33,0,0,0,0,0,0,0,0,0,0,0,0,0,0,33,
scooby_state_40d8c3|18|1 33,0,0,0,0,0,0,0,0,0,0,0,0,0,0,33,
scooby_state_40db39|6|1 33,0,0,0,0,0,0,0,0,0,0,0,0,0,0,33,
scooby_state_40db39|9|1 33,0,0,0,0,0,0,0,0,0,0,0,0,0,0,33,
scooby_state_40dc0f|15|1 33,0,0,0,0,0,0,0,0,0,0,0,0,0,0,33,
scooby_state_40d8c3|50|0 32,0,0,0,0,0,0,0,0,0,0,0,0,0,0,32,
scooby_state_40d7c9|19|1 32,0,0,0,0,0,0,0,0,0,0,0,0,0,0,32,
scooby_state_40d842|19|1 32,0,0,0,0,0,0,0,0,0,0,0,0,0,0,32,
scooby_state_40dcae|56|1 32,0,0,0,0,0,0,0,0,0,0,0,0,0,0,32,
scooby_state_40d842|57|0 32,0,0,0,0,0,0,0,0,0,0,0,0,0,0,32,
scooby_state_40dafa|14|1 32,0,0,0,0,0,0,0,0,0,0,0,0,0,0,32,
scooby_state_40db39|10|1 32,0,0,0,0,0,0,0,0,0,0,0,0,0,0,32,
scooby_state_40d2de|18|1 32,0,0,0,0,0,0,0,0,0,0,0,0,0,0,32,
scooby_state_40d7c9|56|0 32,0,0,0,0,0,0,0,0,0,0,0,0,0,0,32,
scooby_state_40d924|18|1 32,0,0,0,0,0,0,0,0,0,0,0,0,0,0,32,
scooby_state_40db49|8|1 32,0,0,0,0,0,0,0,0,0,0,0,0,0,0,32,
scooby_state_40dbc5|7|-30 32,0,0,0,0,0,0,0,0,0,0,0,0,0,0,32,
scooby_state_40dcae|39|1 32,0,0,0,0,0,0,0,0,0,0,0,0,0,0,32,
scooby_state_40dcae|37|1 32,0,0,0,0,0,0,0,0,0,0,0,0,0,0,32,
scooby_state_40daea|15|1 32,0,0,0,0,0,0,0,0,0,0,0,0,0,0,32,
scooby_state_40d6da|47|-15 32,0,0,0,0,0,0,0,0,0,0,0,0,0,0,32,
scooby_state_40d5fe|53|16 32,0,0,0,0,0,0,0,0,0,0,0,0,0,0,32,
scooby_state_40d701|53|16 32,0,0,0,0,0,0,0,0,0,0,0,0,0,0,32,
scooby_state_40d8a3|18|1 32,0,0,0,0,0,0,0,0,0,0,0,0,0,0,32,
scooby_state_40d453|15|1 32,0,0,0,0,0,0,0,0,0,0,0,0,0,0,32,
scooby_state_40d1a3|18|1 32,0,0,0,0,0,0,0,0,0,0,0,0,0,0,32,
scooby_state_40d685|53|16 32,0,0,0,0,0,0,0,0,0,0,0,0,0,0,32,
scooby_state_40db39|15|1 32,0,0,0,0,0,0,0,0,0,0,0,0,0,0,32,
scooby_state_40d8c3|19|1 32,0,0,0,0,0,0,0,0,0,0,0,0,0,0,32,
scooby_state_40d822|18|1 32,0,0,0,0,0,0,0,0,0,0,0,0,0,0,32,
scooby_state_40d7c9|0|0 32,0,0,0,0,0,0,0,0,0,0,0,0,0,0,32,
scooby_state_40dc5d|31|1 32,0,0,0,0,0,0,0,0,0,0,0,0,0,0,32,
scooby_state_40d887|60|45 32,0,0,0,0,0,0,0,0,0,0,0,0,0,0,32,
scooby_state_40d5dd|36|16 32,0,0,0,0,0,0,0,0,0,0,0,0,0,0,32,
scooby_state_40dc0f|28|1 32,0,0,0,0,0,0,0,0,0,0,0,0,0,0,32,
scooby_state_40d3d6|14|1 32,0,0,0,0,0,0,0,0,0,0,0,0,0,0,32,
scooby_state_40d94c|19|1 32,0,0,0,0,0,0,0,0,0,0,0,0,0,0,32,
scooby_state_40dcae|38|1 32,0,0,0,0,0,0,0,0,0,0,0,0,0,0,32,
scooby_state_40d7a1|18|1 32,0,0,0,0,0,0,0,0,0,0,0,0,0,0,32,
scooby_state_40dcae|36|1 32,0,0,0,0,0,0,0,0,0,0,0,0,0,0,32,
scooby_state_40d8be|19|1 31,0,0,0,0,0,0,0,0,0,0,0,0,0,0,31,
scooby_state_40d65f|48|16 31,0,0,0,0,0,0,0,0,0,0,0,0,0,0,31,
scooby_state_40d65f|49|16 31,0,0,0,0,0,0,0,0,0,0,0,0,0,0,31,
scooby_state_40d6e3|48|16 31,0,0,0,0,0,0,0,0,0,0,0,0,0,0,31,
scooby_state_40d453|4|1 31,0,0,0,0,0,0,0,0,0,0,0,0,0,0,31,
scooby_state_40dc2b|15|1 31,0,0,0,0,0,0,0,0,0,0,0,0,0,0,31,
scooby_state_40d6da|48|-15 31,0,0,0,0,0,0,0,0,0,0,0,0,0,0,31,
scooby_state_40d6fc|31|-15 31,0,0,0,0,0,0,0,0,0,0,0,0,0,0,31,
scooby_state_40db49|5|1 31,0,0,0,0,0,0,0,0,0,0,0,0,0,0,31,
scooby_state_40d453|16|1 31,0,0,0,0,0,0,0,0,0,0,0,0,0,0,31,
scooby_state_40dbc5|6|-30 31,0,0,0,0,0,0,0,0,0,0,0,0,0,0,31,
scooby_state_40d3d6|5|1 31,0,0,0,0,0,0,0,0,0,0,0,0,0,0,31,
scooby_state_40dcae|34|1 31,0,0,0,0,0,0,0,0,0,0,0,0,0,0,31,
scooby_state_40d453|17|1 31,0,0,0,0,0,0,0,0,0,0,0,0,0,0,31,
scooby_state_40d5cc|37|-15 31,0,0,0,0,0,0,0,0,0,0,0,0,0,0,31,
scooby_state_40d65f|47|16 31,0,0,0,0,0,0,0,0,0,0,0,0,0,0,31,
scooby_state_40d5fe|63|16 31,0,0,0,0,0,0,0,0,0,0,0,0,0,0,31,
scooby_state_40d8be|5|1 31,0,0,0,0,0,0,0,0,0,0,0,0,0,0,31,
scooby_state_40d947|45|0 31,0,0,0,0,0,0,0,0,0,0,0,0,0,0,31,
scooby_state_40d5dd|49|16 31,0,0,0,0,0,0,0,0,0,0,0,0,0,0,31,
scooby_state_40d7c9|49|0 31,0,0,0,0,0,0,0,0,0,0,0,0,0,0,31,
scooby_state_40dc56|17|1 31,0,0,0,0,0,0,0,0,0,0,0,0,0,0,31,
scooby_state_40d678|31|-15 31,0,0,0,0,0,0,0,0,0,0,0,0,0,0,31,
scooby_state_40d6e3|35|16 31,0,0,0,0,0,0,0,0,0,0,0,0,0,0,31,
scooby_state_40d7c4|5|1 31,0,0,0,0,0,0,0,0,0,0,0,0,0,0,31,
scooby_state_40db9a|8|1 31,0,0,0,0,0,0,0,0,0,0,0,0,0,0,31,
scooby_state_40dd0f|57|1 31,0,0,0,0,0,0,0,0,0,0,0,0,0,0,31,
scooby_state_40dd0f|55|1 31,0,0,0,0,0,0,0,0,0,0,0,0,0,0,31,
scooby_state_40d685|63|16 31,0,0,0,0,0,0,0,0,0,0,0,0,0,0,31,
scooby_state_40dcae|50|1 31,0,0,0,0,0,0,0,0,0,0,0,0,0,0,31,
scooby_state_40dc5d|25|1 31,0,0,0,0,0,0,0,0,0,0,0,0,0,0,31,
scooby_state_40d947|5|1 31,0,0,0,0,0,0,0,0,0,0,0,0,0,0,31,
scooby_state_40dd0f|56|1 31,0,0,0,0,0,0,0,0,0,0,0,0,0,0,31,
scooby_state_40d8c3|0|0 31,0,0,0,0,0,0,0,0,0,0,0,0,0,0,31,
scooby_state_40d6e3|49|16 31,0,0,0,0,0,0,0,0,0,0,0,0,0,0,31,
scooby_state_40d6e3|47|16 31,0,0,0,0,0,0,0,0,0,0,0,0,0,0,31,
scooby_state_40d6fc|20|-15 31,0,0,0,0,0,0,0,0,0,0,0,0,0,0,31,
scooby_state_40dc2b|29|1 30,0,0,0,0,0,0,0,0,0,0,0,0,0,1,31,
scooby_state_40db49|19|1 31,0,0,0,0,0,0,0,0,0,0,0,0,0,0,31,
scooby_state_40dd47|12|4 31,0,0,0,0,0,0,0,0,0,0,0,0,0,0,31,
scooby_state_40d5f6|31|-15 31,0,0,0,0,0,0,0,0,0,0,0,0,0,0,31,
scooby_state_40d6da|49|1 31,0,0,0,0,0,0,0,0,0,0,0,0,0,0,31,
scooby_state_40d924|10|0 31,0,0,0,0,0,0,0,0,0,0,0,0,0,0,31,
scooby_state_40d6da|37|-15 31,0,0,0,0,0,0,0,0,0,0,0,0,0,0,31,
scooby_state_40d5dd|48|16 31,0,0,0,0,0,0,0,0,0,0,0,0,0,0,31,
scooby_state_40dc56|16|1 31,0,0,0,0,0,0,0,0,0,0,0,0,0,0,31,
scooby_state_40d7c4|19|1 31,0,0,0,0,0,0,0,0,0,0,0,0,0,0,31,
scooby_state_40d83d|5|1 31,0,0,0,0,0,0,0,0,0,0,0,0,0,0,31,
scooby_state_40d653|37|-15 31,0,0,0,0,0,0,0,0,0,0,0,0,0,0,31,
scooby_state_40db39|7|1 31,0,0,0,0,0,0,0,0,0,0,0,0,0,0,31,
scooby_state_40dcae|57|1 31,0,0,0,0,0,0,0,0,0,0,0,0,0,0,31,
scooby_state_40d7a1|49|0 31,0,0,0,0,0,0,0,0,0,0,0,0,0,0,31,
scooby_state_40d83d|19|1 31,0,0,0,0,0,0,0,0,0,0,0,0,0,0,31,
scooby_state_40d947|19|1 31,0,0,0,0,0,0,0,0,0,0,0,0,0,0,31,
scooby_state_40dafa|19|1 31,0,0,0,0,0,0,0,0,0,0,0,0,0,0,31,
scooby_state_40d5cc|47|-15 31,0,0,0,0,0,0,0,0,0,0,0,0,0,0,31,
scooby_state_40dafa|5|1 31,0,0,0,0,0,0,0,0,0,0,0,0,0,0,31,
scooby_state_40d653|47|-15 31,0,0,0,0,0,0,0,0,0,0,0,0,0,0,31,
scooby_state_40dcae|35|1 31,0,0,0,0,0,0,0,0,0,0,0,0,0,0,31,
scooby_state_40db49|7|1 31,0,0,0,0,0,0,0,0,0,0,0,0,0,0,31,
scooby_state_40d5dd|47|16 31,0,0,0,0,0,0,0,0,0,0,0,0,0,0,31,
scooby_state_40d842|40|1 30,0,0,0,0,0,0,0,0,0,0,0,0,0,0,30,
scooby_state_40d7a1|42|1 30,0,0,0,0,0,0,0,0,0,0,0,0,0,0,30,
scooby_state_40d8c3|44|1 30,0,0,0,0,0,0,0,0,0,0,0,0,0,0,30,
scooby_state_40d6fc|41|32 30,0,0,0,0,0,0,0,0,0,0,0,0,0,0,30,
scooby_state_40d7a1|43|1 30,0,0,0,0,0,0,0,0,0,0,0,0,0,0,30,
scooby_state_40d701|10|-47 30,0,0,0,0,0,0,0,0,0,0,0,0,0,0,30,
scooby_state_40d7a1|45|1 30,0,0,0,0,0,0,0,0,0,0,0,0,0,0,30,
scooby_state_40d94c|55|1 30,0,0,0,0,0,0,0,0,0,0,0,0,0,0,30,
scooby_state_40d6da|24|-15 30,0,0,0,0,0,0,0,0,0,0,0,0,0,0,30,
scooby_state_40dafa|23|1 30,0,0,0,0,0,0,0,0,0,0,0,0,0,0,30,
scooby_state_40db49|58|1 30,0,0,0,0,0,0,0,0,0,0,0,0,0,0,30,
scooby_state_40dc0f|33|1 30,0,0,0,0,0,0,0,0,0,0,0,0,0,0,30,
scooby_state_40d94c|44|1 30,0,0,0,0,0,0,0,0,0,0,0,0,0,0,30,
scooby_state_40d1a3|45|1 30,0,0,0,0,0,0,0,0,0,0,0,0,0,0,30,
scooby_state_40d6e3|57|16 30,0,0,0,0,0,0,0,0,0,0,0,0,0,0,30,
scooby_state_40d8c3|41|1 30,0,0,0,0,0,0,0,0,0,0,0,0,0,0,30,
scooby_state_40d7c9|44|1 30,0,0,0,0,0,0,0,0,0,0,0,0,0,0,30,
scooby_state_40d7c4|44|1 29,0,0,1,0,0,0,0,0,0,0,0,0,0,0,30,
scooby_state_40d1a3|39|1 30,0,0,0,0,0,0,0,0,0,0,0,0,0,0,30,
scooby_state_40d83d|44|1 30,0,0,0,0,0,0,0,0,0,0,0,0,0,0,30,
scooby_state_40d8be|43|1 30,0,0,0,0,0,0,0,0,0,0,0,0,0,0,30,
scooby_state_40d7c4|26|1 30,0,0,0,0,0,0,0,0,0,0,0,0,0,0,30,
scooby_state_40d1a3|40|1 30,0,0,0,0,0,0,0,0,0,0,0,0,0,0,30,
scooby_state_40d924|40|1 30,0,0,0,0,0,0,0,0,0,0,0,0,0,0,30,
scooby_state_40db49|25|1 30,0,0,0,0,0,0,0,0,0,0,0,0,0,0,30,
scooby_state_40d5cc|55|1 30,0,0,0,0,0,0,0,0,0,0,0,0,0,0,30,
scooby_state_40d8be|40|1 30,0,0,0,0,0,0,0,0,0,0,0,0,0,0,30,
scooby_state_40d653|8|-47 30,0,0,0,0,0,0,0,0,0,0,0,0,0,0,30,
scooby_state_40d842|43|1 30,0,0,0,0,0,0,0,0,0,0,0,0,0,0,30,
scooby_state_40d685|39|16 30,0,0,0,0,0,0,0,0,0,0,0,0,0,0,30,
scooby_state_40d947|42|1 30,0,0,0,0,0,0,0,0,0,0,0,0,0,0,30,
scooby_state_40d924|27|1 30,0,0,0,0,0,0,0,0,0,0,0,0,0,0,30,
scooby_state_40dc5d|28|1 30,0,0,0,0,0,0,0,0,0,0,0,0,0,0,30,
scooby_state_40db49|23|1 30,0,0,0,0,0,0,0,0,0,0,0,0,0,0,30,
scooby_state_40d1a3|42|1 30,0,0,0,0,0,0,0,0,0,0,0,0,0,0,30,
scooby_state_40d5f6|42|32 30,0,0,0,0,0,0,0,0,0,0,0,0,0,0,30,
scooby_state_40d947|43|1 30,0,0,0,0,0,0,0,0,0,0,0,0,0,0,30,
scooby_state_40d924|39|1 29,0,0,0,0,0,0,0,0,0,0,0,1,0,0,30,
scooby_state_40d5dd|9|1 30,0,0,0,0,0,0,0,0,0,0,0,0,0,0,30,
scooby_state_40d94c|41|1 30,0,0,0,0,0,0,0,0,0,0,0,0,0,0,30,
scooby_state_40d83d|42|1 30,0,0,0,0,0,0,0,0,0,0,0,0,0,0,30,
scooby_state_40d6da|58|1 29,0,0,0,0,0,0,1,0,0,0,0,0,0,0,30,
scooby_state_40d83d|45|1 30,0,0,0,0,0,0,0,0,0,0,0,0,0,0,30,
scooby_state_40d8a3|41|1 30,0,0,0,0,0,0,0,0,0,0,0,0,0,0,30,
scooby_state_40d1a3|24|1 30,0,0,0,0,0,0,0,0,0,0,0,0,0,0,30,
scooby_state_40d8be|29|1 30,0,0,0,0,0,0,0,0,0,0,0,0,0,0,30,
scooby_state_40d924|42|1 30,0,0,0,0,0,0,0,0,0,0,0,0,0,0,30,
scooby_state_40d678|57|32 30,0,0,0,0,0,0,0,0,0,0,0,0,0,0,30,
scooby_state_40d453|55|1 30,0,0,0,0,0,0,0,0,0,0,0,0,0,0,30,
scooby_state_40d7c4|24|1 30,0,0,0,0,0,0,0,0,0,0,0,0,0,0,30,
scooby_state_40d924|43|1 30,0,0,0,0,0,0,0,0,0,0,0,0,0,0,30,
scooby_state_40d7a1|41|1 30,0,0,0,0,0,0,0,0,0,0,0,0,0,0,30,
scooby_state_40dc2b|35|1 30,0,0,0,0,0,0,0,0,0,0,0,0,0,0,30,
scooby_state_40d5fe|10|-47 30,0,0,0,0,0,0,0,0,0,0,0,0,0,0,30,
scooby_state_40d653|7|-47 30,0,0,0,0,0,0,0,0,0,0,0,0,0,0,30,
scooby_state_40d5dd|6|1 30,0,0,0,0,0,0,0,0,0,0,0,0,0,0,30,
scooby_state_40d5cc|10|-47 30,0,0,0,0,0,0,0,0,0,0,0,0,0,0,30,
scooby_state_40d6da|10|-47 30,0,0,0,0,0,0,0,0,0,0,0,0,0,0,30,
scooby_state_40d7c4|27|1 30,0,0,0,0,0,0,0,0,0,0,0,0,0,0,30,
scooby_state_40d65f|9|1 30,0,0,0,0,0,0,0,0,0,0,0,0,0,0,30,
scooby_state_40daea|55|1 30,0,0,0,0,0,0,0,0,0,0,0,0,0,0,30,
scooby_state_40d5fe|26|16 30,0,0,0,0,0,0,0,0,0,0,0,0,0,0,30,
scooby_state_40d6fc|54|32 30,0,0,0,0,0,0,0,0,0,0,0,0,0,0,30,
scooby_state_40d678|54|32 30,0,0,0,0,0,0,0,0,0,0,0,0,0,0,30,
scooby_state_40d5f6|58|32 30,0,0,0,0,0,0,0,0,0,0,0,0,0,0,30,
scooby_state_40d1a3|23|1 30,0,0,0,0,0,0,0,0,0,0,0,0,0,0,30,
scooby_state_40d678|58|32 30,0,0,0,0,0,0,0,0,0,0,0,0,0,0,30,
scooby_state_40d7c9|27|1 30,0,0,0,0,0,0,0,0,0,0,0,0,0,0,30,
scooby_state_40d6fc|58|32 30,0,0,0,0,0,0,0,0,0,0,0,0,0,0,30,
scooby_state_40dc0f|29|1 30,0,0,0,0,0,0,0,0,0,0,0,0,0,0,30,
scooby_state_40d5f6|41|32 30,0,0,0,0,0,0,0,0,0,0,0,0,0,0,30,
scooby_state_40d5cc|11|-47 30,0,0,0,0,0,0,0,0,0,0,0,0,0,0,30,
scooby_state_40d8a3|23|1 30,0,0,0,0,0,0,0,0,0,0,0,0,0,0,30,
scooby_state_40d83d|29|1 30,0,0,0,0,0,0,0,0,0,0,0,0,0,0,30,
scooby_state_40d6da|11|-47 30,0,0,0,0,0,0,0,0,0,0,0,0,0,0,30,
scooby_state_40d65f|10|1 30,0,0,0,0,0,0,0,0,0,0,0,0,0,0,30,
scooby_state_40d5dd|11|1 30,0,0,0,0,0,0,0,0,0,0,0,0,0,0,30,
scooby_state_40d6e3|11|1 30,0,0,0,0,0,0,0,0,0,0,0,0,0,0,30,
scooby_state_40d701|28|16 30,0,0,0,0,0,0,0,0,0,0,0,0,0,0,30,
scooby_state_40d5f6|60|32 30,0,0,0,0,0,0,0,0,0,0,0,0,0,0,30,
scooby_state_40d7c9|42|1 30,0,0,0,0,0,0,0,0,0,0,0,0,0,0,30,
scooby_state_40d701|23|16 30,0,0,0,0,0,0,0,0,0,0,0,0,0,0,30,
scooby_state_40db9a|57|1 30,0,0,0,0,0,0,0,0,0,0,0,0,0,0,30,
scooby_state_40d5cc|28|-15 30,0,0,0,0,0,0,0,0,0,0,0,0,0,0,30,
scooby_state_40d7c4|43|1 30,0,0,0,0,0,0,0,0,0,0,0,0,0,0,30,
scooby_state_40dc0f|38|1 30,0,0,0,0,0,0,0,0,0,0,0,0,0,0,30,
scooby_state_40d5dd|7|1 30,0,0,0,0,0,0,0,0,0,0,0,0,0,0,30,
scooby_state_40d6da|8|-47 30,0,0,0,0,0,0,0,0,0,0,0,0,0,0,30,
scooby_state_40d5fe|24|16 30,0,0,0,0,0,0,0,0,0,0,0,0,0,0,30,
scooby_state_40d7a1|56|1 30,0,0,0,0,0,0,0,0,0,0,0,0,0,0,30,
scooby_state_40d5f6|55|32 30,0,0,0,0,0,0,0,0,0,0,0,0,0,0,30,
scooby_state_40d6e3|6|1 30,0,0,0,0,0,0,0,0,0,0,0,0,0,0,30,
scooby_state_40d678|56|32 30,0,0,0,0,0,0,0,0,0,0,0,0,0,0,30,
scooby_state_40d65f|6|1 30,0,0,0,0,0,0,0,0,0,0,0,0,0,0,30,
scooby_state_40d5cc|9|-47 30,0,0,0,0,0,0,0,0,0,0,0,0,0,0,30,
scooby_state_40d5cc|24|-15 30,0,0,0,0,0,0,0,0,0,0,0,0,0,0,30,
scooby_state_40d6da|9|-47 29,0,0,0,0,0,0,0,0,0,0,0,1,0,0,30,
scooby_state_40d653|11|-47 30,0,0,0,0,0,0,0,0,0,0,0,0,0,0,30,
scooby_state_40d1a3|27|1 30,0,0,0,0,0,0,0,0,0,0,0,0,0,0,30,
scooby_state_40dc0f|36|1 30,0,0,0,0,0,0,0,0,0,0,0,0,0,0,30,
scooby_state_40d6da|7|-47 30,0,0,0,0,0,0,0,0,0,0,0,0,0,0,30,
scooby_state_40d924|23|1 30,0,0,0,0,0,0,0,0,0,0,0,0,0,0,30,
scooby_state_40d701|12|-47 30,0,0,0,0,0,0,0,0,0,0,0,0,0,0,30,
scooby_state_40d5dd|8|1 30,0,0,0,0,0,0,0,0,0,0,0,0,0,0,30,
scooby_state_40d8a3|57|1 30,0,0,0,0,0,0,0,0,0,0,0,0,0,0,30,
scooby_state_40d65f|8|1 30,0,0,0,0,0,0,0,0,0,0,0,0,0,0,30,
scooby_state_40d685|25|16 30,0,0,0,0,0,0,0,0,0,0,0,0,0,0,30,
scooby_state_40d7a1|39|1 30,0,0,0,0,0,0,0,0,0,0,0,0,0,0,30,
scooby_state_40d6fc|57|32 30,0,0,0,0,0,0,0,0,0,0,0,0,0,0,30,
scooby_state_40d5fe|43|16 30,0,0,0,0,0,0,0,0,0,0,0,0,0,0,30,
scooby_state_40d947|28|1 30,0,0,0,0,0,0,0,0,0,0,0,0,0,0,30,
scooby_state_40d2de|45|1 30,0,0,0,0,0,0,0,0,0,0,0,0,0,0,30,
scooby_state_40d7c9|40|1 30,0,0,0,0,0,0,0,0,0,0,0,0,0,0,30,
scooby_state_40d2de|41|1 30,0,0,0,0,0,0,0,0,0,0,0,0,0,0,30,
scooby_state_40dc2b|4|1 30,0,0,0,0,0,0,0,0,0,0,0,0,0,0,30,
scooby_state_40d7c9|20|1 29,1,0,0,0,0,0,0,0,0,0,0,0,0,0,30,
scooby_state_40d8c3|40|1 30,0,0,0,0,0,0,0,0,0,0,0,0,0,0,30,
scooby_state_40db39|28|1 30,0,0,0,0,0,0,0,0,0,0,0,0,0,0,30,
scooby_state_40d2de|39|1 30,0,0,0,0,0,0,0,0,0,0,0,0,0,0,30,
scooby_state_40d7c4|40|1 30,0,0,0,0,0,0,0,0,0,0,0,0,0,0,30,
scooby_state_40d2de|58|1 30,0,0,0,0,0,0,0,0,0,0,0,0,0,0,30,
scooby_state_40d83d|40|1 30,0,0,0,0,0,0,0,0,0,0,0,0,0,0,30,
scooby_state_40dc0f|6|1 30,0,0,0,0,0,0,0,0,0,0,0,0,0,0,30,
scooby_state_40d842|55|1 30,0,0,0,0,0,0,0,0,0,0,0,0,0,0,30,
scooby_state_40d8a3|19|1 30,0,0,0,0,0,0,0,0,0,0,0,0,0,0,30,
scooby_state_40d7a1|55|1 30,0,0,0,0,0,0,0,0,0,0,0,0,0,0,30,
scooby_state_40d842|20|1 30,0,0,0,0,0,0,0,0,0,0,0,0,0,0,30,
scooby_state_40d822|40|1 30,0,0,0,0,0,0,0,0,0,0,0,0,0,0,30,
scooby_state_40d8a3|40|1 29,0,0,0,0,1,0,0,0,0,0,0,0,0,0,30,
scooby_state_40d7a1|19|1 30,0,0,0,0,0,0,0,0,0,0,0,0,0,0,30,
scooby_state_40d7c9|60|1 30,0,0,0,0,0,0,0,0,0,0,0,0,0,0,30,
scooby_state_40d685|9|-47 30,0,0,0,0,0,0,0,0,0,0,0,0,0,0,30,
scooby_state_40d822|55|1 30,0,0,0,0,0,0,0,0,0,0,0,0,0,0,30,
scooby_state_40d822|54|1 30,0,0,0,0,0,0,0,0,0,0,0,0,0,0,30,
scooby_state_40d83d|39|1 30,0,0,0,0,0,0,0,0,0,0,0,0,0,0,30,
scooby_state_40d65f|7|1 30,0,0,0,0,0,0,0,0,0,0,0,0,0,0,30,
scooby_state_40dafa|29|1 30,0,0,0,0,0,0,0,0,0,0,0,0,0,0,30,
scooby_state_40dcae|41|1 30,0,0,0,0,0,0,0,0,0,0,0,0,0,0,30,
scooby_state_40dc47|58|31 30,0,0,0,0,0,0,0,0,0,0,0,0,0,0,30,
scooby_state_40d8be|44|1 30,0,0,0,0,0,0,0,0,0,0,0,0,0,0,30,
scooby_state_40d678|60|32 30,0,0,0,0,0,0,0,0,0,0,0,0,0,0,30,
scooby_state_40d6fc|60|32 30,0,0,0,0,0,0,0,0,0,0,0,0,0,0,30,
scooby_state_40d653|13|-47 30,0,0,0,0,0,0,0,0,0,0,0,0,0,0,30,
scooby_state_40d6da|13|-47 30,0,0,0,0,0,0,0,0,0,0,0,0,0,0,30,
scooby_state_40d8c3|57|1 30,0,0,0,0,0,0,0,0,0,0,0,0,0,0,30,
scooby_state_40d7c9|41|1 30,0,0,0,0,0,0,0,0,0,0,0,0,0,0,30,
scooby_state_40d8be|41|0 30,0,0,0,0,0,0,0,0,0,0,0,0,0,0,30,
scooby_state_40d8a3|43|1 30,0,0,0,0,0,0,0,0,0,0,0,0,0,0,30,
scooby_state_40d7a1|28|1 30,0,0,0,0,0,0,0,0,0,0,0,0,0,0,30,
scooby_state_40d5fe|9|-47 30,0,0,0,0,0,0,0,0,0,0,0,0,0,0,30,
scooby_state_40d5fe|39|16 30,0,0,0,0,0,0,0,0,0,0,0,0,0,0,30,
scooby_state_40d3d6|17|1 30,0,0,0,0,0,0,0,0,0,0,0,0,0,0,30,
scooby_state_40d653|61|1 30,0,0,0,0,0,0,0,0,0,0,0,0,0,0,30,
scooby_state_40d6fc|43|32 30,0,0,0,0,0,0,0,0,0,0,0,0,0,0,30,
scooby_state_40d453|39|1 30,0,0,0,0,0,0,0,0,0,0,0,0,0,0,30,
scooby_state_40d5cc|14|-47 30,0,0,0,0,0,0,0,0,0,0,0,0,0,0,30,
scooby_state_40d83d|28|1 30,0,0,0,0,0,0,0,0,0,0,0,0,0,0,30,
scooby_state_40d94c|40|1 30,0,0,0,0,0,0,0,0,0,0,0,0,0,0,30,
scooby_state_40d653|14|-47 30,0,0,0,0,0,0,0,0,0,0,0,0,0,0,30,
scooby_state_40d6da|14|-47 30,0,0,0,0,0,0,0,0,0,0,0,0,0,0,30,
scooby_state_40d822|45|1 29,0,0,0,0,0,0,0,0,0,0,0,0,1,0,30,
scooby_state_40d924|25|1 30,0,0,0,0,0,0,0,0,0,0,0,0,0,0,30,
scooby_state_40d947|40|1 30,0,0,0,0,0,0,0,0,0,0,0,0,0,0,30,
scooby_state_40dcae|42|1 30,0,0,0,0,0,0,0,0,0,0,0,0,0,0,30,
scooby_state_40d5dd|58|16 30,0,0,0,0,0,0,0,0,0,0,0,0,0,0,30,
scooby_state_40d2de|43|1 30,0,0,0,0,0,0,0,0,0,0,0,0,0,0,30,
scooby_state_40d6e3|23|16 30,0,0,0,0,0,0,0,0,0,0,0,0,0,0,30,
scooby_state_40dc2b|2|1 30,0,0,0,0,0,0,0,0,0,0,0,0,0,0,30,
scooby_state_40d1a3|25|1 30,0,0,0,0,0,0,0,0,0,0,0,0,0,0,30,
scooby_state_40d8be|41|1 29,0,0,0,0,0,0,0,0,0,0,0,0,0,1,30,
scooby_state_40d94c|20|1 30,0,0,0,0,0,0,0,0,0,0,0,0,0,0,30,
scooby_state_40d7c9|29|1 30,0,0,0,0,0,0,0,0,0,0,0,0,0,0,30,
scooby_state_40d83d|23|1 30,0,0,0,0,0,0,0,0,0,0,0,0,0,0,30,
scooby_state_40d65f|50|16 30,0,0,0,0,0,0,0,0,0,0,0,0,0,0,30,
scooby_state_40dccb|34|1 30,0,0,0,0,0,0,0,0,0,0,0,0,0,0,30,
scooby_state_40d924|19|1 30,0,0,0,0,0,0,0,0,0,0,0,0,0,0,30,
scooby_state_40d947|61|1 30,0,0,0,0,0,0,0,0,0,0,0,0,0,0,30,
scooby_state_40d83d|27|1 30,0,0,0,0,0,0,0,0,0,0,0,0,0,0,30,
scooby_state_40d653|27|-15 30,0,0,0,0,0,0,0,0,0,0,0,0,0,0,30,
scooby_state_40daea|24|1 29,0,0,0,1,0,0,0,0,0,0,0,0,0,0,30,
scooby_state_40d94c|56|1 30,0,0,0,0,0,0,0,0,0,0,0,0,0,0,30,
scooby_state_40d924|59|1 30,0,0,0,0,0,0,0,0,0,0,0,0,0,0,30,
scooby_state_40d653|49|1 30,0,0,0,0,0,0,0,0,0,0,0,0,0,0,30,
scooby_state_40dafa|25|1 30,0,0,0,0,0,0,0,0,0,0,0,0,0,0,30,
scooby_state_40db49|27|1 30,0,0,0,0,0,0,0,0,0,0,0,0,0,0,30,
scooby_state_40d8c3|59|1 30,0,0,0,0,0,0,0,0,0,0,0,0,0,0,30,
scooby_state_40db49|12|1 30,0,0,0,0,0,0,0,0,0,0,0,0,0,0,30,
scooby_state_40d6fc|44|32 30,0,0,0,0,0,0,0,0,0,0,0,0,0,0,30,
scooby_state_40d7c4|59|1 30,0,0,0,0,0,0,0,0,0,0,0,0,0,0,30,
scooby_state_40db49|41|1 30,0,0,0,0,0,0,0,0,0,0,0,0,0,0,30,
scooby_state_40d94c|59|1 30,0,0,0,0,0,0,0,0,0,0,0,0,0,0,30,
scooby_state_40d5fe|23|16 30,0,0,0,0,0,0,0,0,0,0,0,0,0,0,30,
scooby_state_40d7a1|26|1 30,0,0,0,0,0,0,0,0,0,0,0,0,0,0,30,
scooby_state_40d1a3|41|1 30,0,0,0,0,0,0,0,0,0,0,0,0,0,0,30,
scooby_state_40db8d|9|1 29,0,0,0,0,0,0,1,0,0,0,0,0,0,0,30,
scooby_state_40d8a3|42|1 30,0,0,0,0,0,0,0,0,0,0,0,0,0,0,30,
scooby_state_40d5dd|56|16 30,0,0,0,0,0,0,0,0,0,0,0,0,0,0,30,
scooby_state_40d5cc|26|-15 30,0,0,0,0,0,0,0,0,0,0,0,0,0,0,30,
scooby_state_40d685|12|-47 30,0,0,0,0,0,0,0,0,0,0,0,0,0,0,30,
scooby_state_40d5fe|41|16 30,0,0,0,0,0,0,0,0,0,0,0,0,0,0,30,
scooby_state_40d8be|25|1 30,0,0,0,0,0,0,0,0,0,0,0,0,0,0,30,
scooby_state_40d8a3|39|1 30,0,0,0,0,0,0,0,0,0,0,0,0,0,0,30,
scooby_state_40d5cc|27|-15 30,0,0,0,0,0,0,0,0,0,0,0,0,0,0,30,
scooby_state_40d6da|50|1 30,0,0,0,0,0,0,0,0,0,0,0,0,0,0,30,
scooby_state_40d685|10|-47 30,0,0,0,0,0,0,0,0,0,0,0,0,0,0,30,
scooby_state_40db49|29|1 30,0,0,0,0,0,0,0,0,0,0,0,0,0,0,30,
scooby_state_40db8d|44|1 30,0,0,0,0,0,0,0,0,0,0,0,0,0,0,30,
scooby_state_40d7c4|42|1 30,0,0,0,0,0,0,0,0,0,0,0,0,0,0,30,
scooby_state_40d653|9|-47 30,0,0,0,0,0,0,0,0,0,0,0,0,0,0,30,
scooby_state_40d8be|56|1 30,0,0,0,0,0,0,0,0,0,0,0,0,0,0,30,
scooby_state_40d5dd|12|1 30,0,0,0,0,0,0,0,0,0,0,0,0,0,0,30,
scooby_state_40d6fc|10|-15 30,0,0,0,0,0,0,0,0,0,0,0,0,0,0,30,
scooby_state_40d7c4|57|1 30,0,0,0,0,0,0,0,0,0,0,0,0,0,0,30,
scooby_state_40d842|58|1 30,0,0,0,0,0,0,0,0,0,0,0,0,0,0,30,
scooby_state_40d453|61|1 29,0,0,0,0,0,0,1,0,0,0,0,0,0,0,30,
scooby_state_40dc0f|34|1 30,0,0,0,0,0,0,0,0,0,0,0,0,0,0,30,
scooby_state_40d8be|26|1 30,0,0,0,0,0,0,0,0,0,0,0,0,0,0,30,
scooby_state_40d5cc|59|1 30,0,0,0,0,0,0,0,0,0,0,0,0,0,0,30,
scooby_state_40d7a1|25|1 30,0,0,0,0,0,0,0,0,0,0,0,0,0,0,30,
scooby_state_40d947|29|1 30,0,0,0,0,0,0,0,0,0,0,0,0,0,0,30,
scooby_state_40d2de|26|1 30,0,0,0,0,0,0,0,0,0,0,0,0,0,0,30,
scooby_state_40d6fc|39|32 30,0,0,0,0,0,0,0,0,0,0,0,0,0,0,30,
scooby_state_40d5dd|22|16 30,0,0,0,0,0,0,0,0,0,0,0,0,0,0,30,
scooby_state_40d5f6|59|32 30,0,0,0,0,0,0,0,0,0,0,0,0,0,0,30,
scooby_state_40d678|44|32 30,0,0,0,0,0,0,0,0,0,0,0,0,0,0,30,
scooby_state_40db49|57|1 30,0,0,0,0,0,0,0,0,0,0,0,0,0,0,30,
scooby_state_40d1a3|60|1 30,0,0,0,0,0,0,0,0,0,0,0,0,0,0,30,
scooby_state_40d7c9|57|1 30,0,0,0,0,0,0,0,0,0,0,0,0,0,0,30,
scooby_state_40dc5d|26|1 30,0,0,0,0,0,0,0,0,0,0,0,0,0,0,30,
scooby_state_40d7c9|43|1 30,0,0,0,0,0,0,0,0,0,0,0,0,0,0,30,
scooby_state_40d7c9|55|1 30,0,0,0,0,0,0,0,0,0,0,0,0,0,0,30,
scooby_state_40db39|45|1 30,0,0,0,0,0,0,0,0,0,0,0,0,0,0,30,
[...]
scooby_state_40d4e0|54|-9 1,0,0,0,0,0,0,0,0,0,0,0,0,0,0,1,
scooby_state_40dce9|63|18 1,0,0,0,0,0,0,0,0,0,0,0,0,0,0,1,
scooby_state_40dd27|32|18 1,0,0,0,0,0,0,0,0,0,0,0,0,0,0,1,
scooby_state_40db9a|38|-10 1,0,0,0,0,0,0,0,0,0,0,0,0,0,0,1,
scooby_state_40dd27|42|10 1,0,0,0,0,0,0,0,0,0,0,0,0,0,0,1,
scooby_state_40db9a|51|-12 1,0,0,0,0,0,0,0,0,0,0,0,0,0,0,1,
scooby_state_40dcae|6|2 1,0,0,0,0,0,0,0,0,0,0,0,0,0,0,1,
scooby_state_40d6e3|20|15 1,0,0,0,0,0,0,0,0,0,0,0,0,0,0,1,
scooby_state_40d65f|20|15 1,0,0,0,0,0,0,0,0,0,0,0,0,0,0,1,
scooby_state_40dcae|21|2 1,0,0,0,0,0,0,0,0,0,0,0,0,0,0,1,
scooby_state_40d6da|0|-31 1,0,0,0,0,0,0,0,0,0,0,0,0,0,0,1,
scooby_state_40dcae|18|4 1,0,0,0,0,0,0,0,0,0,0,0,0,0,0,1,
scooby_state_40d5cc|19|1 1,0,0,0,0,0,0,0,0,0,0,0,0,0,0,1,
scooby_state_40db8d|10|2 1,0,0,0,0,0,0,0,0,0,0,0,0,0,0,1,
scooby_state_40d822|38|-15 1,0,0,0,0,0,0,0,0,0,0,0,0,0,0,1,
scooby_state_40dce9|39|5 1,0,0,0,0,0,0,0,0,0,0,0,0,0,0,1,
scooby_state_40d5dd|20|15 1,0,0,0,0,0,0,0,0,0,0,0,0,0,0,1,
scooby_state_40dd27|20|17 1,0,0,0,0,0,0,0,0,0,0,0,0,0,0,1,
scooby_state_40d4e0|14|13 1,0,0,0,0,0,0,0,0,0,0,0,0,0,0,1,
scooby_state_40db9a|41|2 1,0,0,0,0,0,0,0,0,0,0,0,0,0,0,1,
scooby_state_40db9a|39|-9 1,0,0,0,0,0,0,0,0,0,0,0,0,0,0,1,
scooby_state_40dafa|36|2 1,0,0,0,0,0,0,0,0,0,0,0,0,0,0,1,
scooby_state_40dccb|6|4 1,0,0,0,0,0,0,0,0,0,0,0,0,0,0,1,
scooby_state_40d3c7|6|0 1,0,0,0,0,0,0,0,0,0,0,0,0,0,0,1,
scooby_state_40d701|36|15 1,0,0,0,0,0,0,0,0,0,0,0,0,0,0,1,
scooby_state_40d6da|21|1 1,0,0,0,0,0,0,0,0,0,0,0,0,0,0,1,
scooby_state_40d653|39|0 1,0,0,0,0,0,0,0,0,0,0,0,0,0,0,1,
scooby_state_40dce9|32|18 1,0,0,0,0,0,0,0,0,0,0,0,0,0,0,1,
scooby_state_40dcae|52|5 1,0,0,0,0,0,0,0,0,0,0,0,0,0,0,1,
scooby_state_40db9a|36|-11 1,0,0,0,0,0,0,0,0,0,0,0,0,0,0,1,
scooby_state_40db8d|6|-13 1,0,0,0,0,0,0,0,0,0,0,0,0,0,0,1,
scooby_state_40dce9|33|4 1,0,0,0,0,0,0,0,0,0,0,0,0,0,0,1,
scooby_state_40db9a|15|9 1,0,0,0,0,0,0,0,0,0,0,0,0,0,0,1,
scooby_state_40db9a|42|-10 1,0,0,0,0,0,0,0,0,0,0,0,0,0,0,1,
scooby_state_40d466|46|1 1,0,0,0,0,0,0,0,0,0,0,0,0,0,0,1,
scooby_state_40d822|32|0 1,0,0,0,0,0,0,0,0,0,0,0,0,0,0,1,
scooby_state_40d685|31|1 1,0,0,0,0,0,0,0,0,0,0,0,0,0,0,1,
scooby_state_40d65f|30|1 1,0,0,0,0,0,0,0,0,0,0,0,0,0,0,1,
scooby_state_40dccb|31|17 1,0,0,0,0,0,0,0,0,0,0,0,0,0,0,1,
scooby_state_40db49|35|-12 1,0,0,0,0,0,0,0,0,0,0,0,0,0,0,1,
scooby_state_40d822|62|0 1,0,0,0,0,0,0,0,0,0,0,0,0,0,0,1,
scooby_state_40dce9|33|3 1,0,0,0,0,0,0,0,0,0,0,0,0,0,0,1,
scooby_state_40dd27|16|8 1,0,0,0,0,0,0,0,0,0,0,0,0,0,0,1,
scooby_state_40db8d|55|-8 1,0,0,0,0,0,0,0,0,0,0,0,0,0,0,1,
scooby_state_40dafa|30|-15 1,0,0,0,0,0,0,0,0,0,0,0,0,0,0,1,
scooby_state_40daea|49|-13 1,0,0,0,0,0,0,0,0,0,0,0,0,0,0,1,
scooby_state_40daea|21|-13 1,0,0,0,0,0,0,0,0,0,0,0,0,0,0,1,
scooby_state_40d6da|19|-43 1,0,0,0,0,0,0,0,0,0,0,0,0,0,0,1,
scooby_state_40d685|35|1 1,0,0,0,0,0,0,0,0,0,0,0,0,0,0,1,
scooby_state_40d65f|18|1 1,0,0,0,0,0,0,0,0,0,0,0,0,0,0,1,
scooby_state_40d6da|18|-44 1,0,0,0,0,0,0,0,0,0,0,0,0,0,0,1,
scooby_state_40d678|2|1 1,0,0,0,0,0,0,0,0,0,0,0,0,0,0,1,
scooby_state_40d6da|0|-62 1,0,0,0,0,0,0,0,0,0,0,0,0,0,0,1,
scooby_state_40dccb|19|5 1,0,0,0,0,0,0,0,0,0,0,0,0,0,0,1,
scooby_state_40d5dd|62|1 1,0,0,0,0,0,0,0,0,0,0,0,0,0,0,1,
scooby_state_40d6da|18|-43 1,0,0,0,0,0,0,0,0,0,0,0,0,0,0,1,
scooby_state_40dcae|15|9 1,0,0,0,0,0,0,0,0,0,0,0,0,0,0,1,
scooby_state_40db8d|1|-13 1,0,0,0,0,0,0,0,0,0,0,0,0,0,0,1,
scooby_state_40dce9|17|12 1,0,0,0,0,0,0,0,0,0,0,0,0,0,0,1,
scooby_state_40dcae|49|2 1,0,0,0,0,0,0,0,0,0,0,0,0,0,0,1,
scooby_state_40d8be|0|-13 1,0,0,0,0,0,0,0,0,0,0,0,0,0,0,1,
scooby_state_40d947|0|-5 1,0,0,0,0,0,0,0,0,0,0,0,0,0,0,1,
scooby_state_40db39|22|-13 1,0,0,0,0,0,0,0,0,0,0,0,0,0,0,1,
scooby_state_40d5fe|34|1 1,0,0,0,0,0,0,0,0,0,0,0,0,0,0,1,
scooby_state_40d5fe|33|15 1,0,0,0,0,0,0,0,0,0,0,0,0,0,0,1,
scooby_state_40d2de|22|0 1,0,0,0,0,0,0,0,0,0,0,0,0,0,0,1,
scooby_state_40d6e3|31|17 1,0,0,0,0,0,0,0,0,0,0,0,0,0,0,1,
scooby_state_40d8a3|22|-15 1,0,0,0,0,0,0,0,0,0,0,0,0,0,0,1,
scooby_state_40d6e3|54|1 1,0,0,0,0,0,0,0,0,0,0,0,0,0,0,1,
scooby_state_40d65f|54|1 1,0,0,0,0,0,0,0,0,0,0,0,0,0,0,1,
scooby_state_40d6e3|53|47 1,0,0,0,0,0,0,0,0,0,0,0,0,0,0,1,
scooby_state_40d4e0|12|-3 1,0,0,0,0,0,0,0,0,0,0,0,0,0,0,1,
scooby_state_40d701|6|-32 1,0,0,0,0,0,0,0,0,0,0,0,0,0,0,1,
scooby_state_40d5fe|6|-32 1,0,0,0,0,0,0,0,0,0,0,0,0,0,0,1,
scooby_state_40d6fc|38|1 1,0,0,0,0,0,0,0,0,0,0,0,0,0,0,1,
scooby_state_40d5f6|38|1 1,0,0,0,0,0,0,0,0,0,0,0,0,0,0,1,
scooby_state_40db9a|14|3 1,0,0,0,0,0,0,0,0,0,0,0,0,0,0,1,
scooby_state_40dce9|19|17 1,0,0,0,0,0,0,0,0,0,0,0,0,0,0,1,
scooby_state_40d0a7|2|-57 1,0,0,0,0,0,0,0,0,0,0,0,0,0,0,1,
scooby_state_40dd27|54|9 1,0,0,0,0,0,0,0,0,0,0,0,0,0,0,1,
scooby_state_40dccb|6|3 1,0,0,0,0,0,0,0,0,0,0,0,0,0,0,1,
scooby_state_40db8d|29|-7 1,0,0,0,0,0,0,0,0,0,0,0,0,0,0,1,
scooby_state_40db9a|29|-8 1,0,0,0,0,0,0,0,0,0,0,0,0,0,0,1,
scooby_state_40d3c7|45|0 1,0,0,0,0,0,0,0,0,0,0,0,0,0,0,1,
scooby_state_40d65f|21|1 1,0,0,0,0,0,0,0,0,0,0,0,0,0,0,1,
scooby_state_40dcae|63|9 1,0,0,0,0,0,0,0,0,0,0,0,0,0,0,1,
scooby_state_40d466|62|1 1,0,0,0,0,0,0,0,0,0,0,0,0,0,0,1,
scooby_state_40d4e0|9|-10 1,0,0,0,0,0,0,0,0,0,0,0,0,0,0,1,
scooby_state_40dafa|22|0 1,0,0,0,0,0,0,0,0,0,0,0,0,0,0,1,
scooby_state_40d5cc|6|-46 1,0,0,0,0,0,0,0,0,0,0,0,0,0,0,1,
scooby_state_40dafa|23|0 1,0,0,0,0,0,0,0,0,0,0,0,0,0,0,1,
scooby_state_40d6e3|63|48 1,0,0,0,0,0,0,0,0,0,0,0,0,0,0,1,
scooby_state_40d685|6|-31 1,0,0,0,0,0,0,0,0,0,0,0,0,0,0,1,
scooby_state_40d5dd|19|1 1,0,0,0,0,0,0,0,0,0,0,0,0,0,0,1,
scooby_state_40d44b|6|0 1,0,0,0,0,0,0,0,0,0,0,0,0,0,0,1,
scooby_state_40d8f1|50|-3 1,0,0,0,0,0,0,0,0,0,0,0,0,0,0,1,
scooby_state_40d701|16|1 1,0,0,0,0,0,0,0,0,0,0,0,0,0,0,1,
scooby_state_40d4e0|60|5 1,0,0,0,0,0,0,0,0,0,0,0,0,0,0,1,
scooby_state_40db9a|2|-12 1,0,0,0,0,0,0,0,0,0,0,0,0,0,0,1,
scooby_state_40dce9|22|18 1,0,0,0,0,0,0,0,0,0,0,0,0,0,0,1,
scooby_state_40dcae|52|2 1,0,0,0,0,0,0,0,0,0,0,0,0,0,0,1,
scooby_state_40db8d|28|-9 1,0,0,0,0,0,0,0,0,0,0,0,0,0,0,1,
scooby_state_40db9a|28|-9 1,0,0,0,0,0,0,0,0,0,0,0,0,0,0,1,
scooby_state_40db39|23|-14 1,0,0,0,0,0,0,0,0,0,0,0,0,0,0,1,
scooby_state_40daea|23|-14 1,0,0,0,0,0,0,0,0,0,0,0,0,0,0,1,
scooby_state_40dce9|53|11 1,0,0,0,0,0,0,0,0,0,0,0,0,0,0,1,
scooby_state_40d4e0|37|1 1,0,0,0,0,0,0,0,0,0,0,0,0,0,0,1,
scooby_state_40db9a|52|-11 1,0,0,0,0,0,0,0,0,0,0,0,0,0,0,1,
scooby_state_40d924|18|0 1,0,0,0,0,0,0,0,0,0,0,0,0,0,0,1,
scooby_state_40d4e0|5|1 1,0,0,0,0,0,0,0,0,0,0,0,0,0,0,1,
scooby_state_40d482|18|1 1,0,0,0,0,0,0,0,0,0,0,0,0,0,0,1,
scooby_state_40d4e0|34|3 1,0,0,0,0,0,0,0,0,0,0,0,0,0,0,1,
scooby_state_40d4e0|13|3 1,0,0,0,0,0,0,0,0,0,0,0,0,0,0,1,
scooby_state_40d822|22|-15 1,0,0,0,0,0,0,0,0,0,0,0,0,0,0,1,
scooby_state_40db9a|29|-7 1,0,0,0,0,0,0,0,0,0,0,0,0,0,0,1,
scooby_state_40dccb|27|14 0,0,0,0,0,0,0,1,0,0,0,0,0,0,0,1,
scooby_state_40db9a|22|-9 1,0,0,0,0,0,0,0,0,0,0,0,0,0,0,1,
scooby_state_40d4e0|8|-11 1,0,0,0,0,0,0,0,0,0,0,0,0,0,0,1,
scooby_state_40dccb|1|0 1,0,0,0,0,0,0,0,0,0,0,0,0,0,0,1,
scooby_state_40db9a|41|3 1,0,0,0,0,0,0,0,0,0,0,0,0,0,0,1,
scooby_state_40d5fe|55|1 1,0,0,0,0,0,0,0,0,0,0,0,0,0,0,1,
scooby_state_40d8be|62|-1 1,0,0,0,0,0,0,0,0,0,0,0,0,0,0,1,
scooby_state_40db8d|35|-12 1,0,0,0,0,0,0,0,0,0,0,0,0,0,0,1,
scooby_state_40d6da|6|-46 1,0,0,0,0,0,0,0,0,0,0,0,0,0,0,1,
scooby_state_40dbb6|27|0 1,0,0,0,0,0,0,0,0,0,0,0,0,0,0,1,
scooby_state_40db49|12|2 1,0,0,0,0,0,0,0,0,0,0,0,0,0,0,1,
scooby_state_40db8d|18|-13 1,0,0,0,0,0,0,0,0,0,0,0,0,0,0,1,
scooby_state_40d6fc|22|1 1,0,0,0,0,0,0,0,0,0,0,0,0,0,0,1,
scooby_state_40d6fc|47|17 1,0,0,0,0,0,0,0,0,0,0,0,0,0,0,1,
scooby_state_40d3b2|14|-44 1,0,0,0,0,0,0,0,0,0,0,0,0,0,0,1,
scooby_state_40db8d|14|5 1,0,0,0,0,0,0,0,0,0,0,0,0,0,0,1,
scooby_state_40d6da|46|0 1,0,0,0,0,0,0,0,0,0,0,0,0,0,0,1,
scooby_state_40d900|49|0 1,0,0,0,0,0,0,0,0,0,0,0,0,0,0,1,
scooby_state_40d924|21|-1 1,0,0,0,0,0,0,0,0,0,0,0,0,0,0,1,
scooby_state_40dc47|49|1 1,0,0,0,0,0,0,0,0,0,0,0,0,0,0,1,
scooby_state_40dafa|54|2 1,0,0,0,0,0,0,0,0,0,0,0,0,0,0,1,
scooby_state_40d5dd|45|15 1,0,0,0,0,0,0,0,0,0,0,0,0,0,0,1,
scooby_state_40d4e0|57|3 1,0,0,0,0,0,0,0,0,0,0,0,0,0,0,1,
scooby_state_40d678|38|-15 1,0,0,0,0,0,0,0,0,0,0,0,0,0,0,1,
scooby_state_40d5f6|38|-15 1,0,0,0,0,0,0,0,0,0,0,0,0,0,0,1,
scooby_state_40d5f6|52|48 1,0,0,0,0,0,0,0,0,0,0,0,0,0,0,1,
scooby_state_40d5fe|6|-31 1,0,0,0,0,0,0,0,0,0,0,0,0,0,0,1,
scooby_state_40db8d|3|2 1,0,0,0,0,0,0,0,0,0,0,0,0,0,0,1,
scooby_state_40d7c9|14|0 1,0,0,0,0,0,0,0,0,0,0,0,0,0,0,1,
scooby_state_40d6e3|19|1 1,0,0,0,0,0,0,0,0,0,0,0,0,0,0,1,
scooby_state_40db39|34|-12 1,0,0,0,0,0,0,0,0,0,0,0,0,0,0,1,
scooby_state_40db41|60|0 1,0,0,0,0,0,0,0,0,0,0,0,0,0,0,1,
scooby_state_40d701|45|15 1,0,0,0,0,0,0,0,0,0,0,0,0,0,0,1,
scooby_state_40d5dd|33|1 1,0,0,0,0,0,0,0,0,0,0,0,0,0,0,1,
scooby_state_40d6e3|37|32 1,0,0,0,0,0,0,0,0,0,0,0,0,0,0,1,
scooby_state_40d6fc|46|6 1,0,0,0,0,0,0,0,0,0,0,0,0,0,0,1,
scooby_state_40d4c0|19|1 1,0,0,0,0,0,0,0,0,0,0,0,0,0,0,1,
scooby_state_40de41|57|1 1,0,0,0,0,0,0,0,0,0,0,0,0,0,0,1,
scooby_state_40db39|56|2 1,0,0,0,0,0,0,0,0,0,0,0,0,0,0,1,
scooby_state_40db02|56|-1 1,0,0,0,0,0,0,0,0,0,0,0,0,0,0,1,
scooby_state_40db8d|42|-9 1,0,0,0,0,0,0,0,0,0,0,0,0,0,0,1,
scooby_state_40dc1c|53|49 1,0,0,0,0,0,0,0,0,0,0,0,0,0,0,1,
scooby_state_40db8d|14|3 1,0,0,0,0,0,0,0,0,0,0,0,0,0,0,1,
scooby_state_40dccb|53|2 1,0,0,0,0,0,0,0,0,0,0,0,0,0,0,1,
scooby_state_40dccb|15|0 1,0,0,0,0,0,0,0,0,0,0,0,0,0,0,1,
scooby_state_40d4e0|47|8 1,0,0,0,0,0,0,0,0,0,0,0,0,0,0,1,
scooby_state_40d2c4|11|1 1,0,0,0,0,0,0,0,0,0,0,0,0,0,0,1,
scooby_state_40daa0|42|-10 1,0,0,0,0,0,0,0,0,0,0,0,0,0,0,1,
scooby_state_40d65f|36|15 1,0,0,0,0,0,0,0,0,0,0,0,0,0,0,1,
scooby_state_40d5f6|22|1 1,0,0,0,0,0,0,0,0,0,0,0,0,0,0,1,
scooby_state_40de81|58|1 1,0,0,0,0,0,0,0,0,0,0,0,0,0,0,1,
scooby_state_40dccb|30|0 1,0,0,0,0,0,0,0,0,0,0,0,0,0,0,1,
scooby_state_40d7c4|0|-13 1,0,0,0,0,0,0,0,0,0,0,0,0,0,0,1,
scooby_state_40d580|22|1 1,0,0,0,0,0,0,0,0,0,0,0,0,0,0,1,
scooby_state_40d5dd|61|15 1,0,0,0,0,0,0,0,0,0,0,0,0,0,0,1,
scooby_state_40d947|7|-15 1,0,0,0,0,0,0,0,0,0,0,0,0,0,0,1,
scooby_state_40d7c4|7|-15 1,0,0,0,0,0,0,0,0,0,0,0,0,0,0,1,
scooby_state_40d701|55|1 1,0,0,0,0,0,0,0,0,0,0,0,0,0,0,1,
scooby_state_40d678|22|1 1,0,0,0,0,0,0,0,0,0,0,0,0,0,0,1,
scooby_state_40d924|6|0 1,0,0,0,0,0,0,0,0,0,0,0,0,0,0,1,
scooby_state_40d8be|54|-9 1,0,0,0,0,0,0,0,0,0,0,0,0,0,0,1,
scooby_state_40d4e0|46|15 1,0,0,0,0,0,0,0,0,0,0,0,0,0,0,1,
scooby_state_40d6e3|31|15 1,0,0,0,0,0,0,0,0,0,0,0,0,0,0,1,
scooby_state_40d685|55|1 1,0,0,0,0,0,0,0,0,0,0,0,0,0,0,1,
scooby_state_40dd27|42|11 1,0,0,0,0,0,0,0,0,0,0,0,0,0,0,1,
scooby_state_40dcae|22|2 1,0,0,0,0,0,0,0,0,0,0,0,0,0,0,1,
scooby_state_40d5f6|13|1 1,0,0,0,0,0,0,0,0,0,0,0,0,0,0,1,
scooby_state_40d4e0|12|11 1,0,0,0,0,0,0,0,0,0,0,0,0,0,0,1,
scooby_state_40dc38|47|46 1,0,0,0,0,0,0,0,0,0,0,0,0,0,0,1,
scooby_state_40dd27|63|18 1,0,0,0,0,0,0,0,0,0,0,0,0,0,0,1,
scooby_state_40dccb|38|5 1,0,0,0,0,0,0,0,0,0,0,0,0,0,0,1,
scooby_state_40d5cc|0|-62 1,0,0,0,0,0,0,0,0,0,0,0,0,0,0,1,
scooby_state_40d701|15|-15 1,0,0,0,0,0,0,0,0,0,0,0,0,0,0,1,
scooby_state_40d685|15|-31 1,0,0,0,0,0,0,0,0,0,0,0,0,0,0,1,
scooby_state_40d5f6|47|1 1,0,0,0,0,0,0,0,0,0,0,0,0,0,0,1,
scooby_state_40d6fc|32|2 1,0,0,0,0,0,0,0,0,0,0,0,0,0,0,1,
scooby_state_40d678|53|47 1,0,0,0,0,0,0,0,0,0,0,0,0,0,0,1,
scooby_state_40dccb|29|2 1,0,0,0,0,0,0,0,0,0,0,0,0,0,0,1,
scooby_state_40daea|19|-13 1,0,0,0,0,0,0,0,0,0,0,0,0,0,0,1,
scooby_state_40db39|18|-11 1,0,0,0,0,0,0,0,0,0,0,0,0,0,0,1,
scooby_state_40db8d|40|3 1,0,0,0,0,0,0,0,0,0,0,0,0,0,0,1,
scooby_state_40db8d|41|8 1,0,0,0,0,0,0,0,0,0,0,0,0,0,0,1,
scooby_state_40dccb|16|10 1,0,0,0,0,0,0,0,0,0,0,0,0,0,0,1,
scooby_state_40d4e0|20|1 1,0,0,0,0,0,0,0,0,0,0,0,0,0,0,1,
scooby_state_40dafa|7|-15 1,0,0,0,0,0,0,0,0,0,0,0,0,0,0,1,
scooby_state_40d822|5|0 1,0,0,0,0,0,0,0,0,0,0,0,0,0,0,1,
scooby_state_40db39|12|4 1,0,0,0,0,0,0,0,0,0,0,0,0,0,0,1,
scooby_state_40d6da|22|-41 1,0,0,0,0,0,0,0,0,0,0,0,0,0,0,1,
scooby_state_40d685|16|16 0,0,0,0,0,0,0,1,0,0,0,0,0,0,0,1,
scooby_state_40d653|1|-62 1,0,0,0,0,0,0,0,0,0,0,0,0,0,0,1,
scooby_state_40d924|38|-15 1,0,0,0,0,0,0,0,0,0,0,0,0,0,0,1,
scooby_state_40dd27|33|12 1,0,0,0,0,0,0,0,0,0,0,0,0,0,0,1,
scooby_state_40d5dd|32|15 1,0,0,0,0,0,0,0,0,0,0,0,0,0,0,1,
scooby_state_40d6fc|34|2 1,0,0,0,0,0,0,0,0,0,0,0,0,0,0,1,
scooby_state_40db39|0|-12 1,0,0,0,0,0,0,0,0,0,0,0,0,0,0,1,
scooby_state_40db9a|40|3 1,0,0,0,0,0,0,0,0,0,0,0,0,0,0,1,
scooby_state_40d6fc|32|1 1,0,0,0,0,0,0,0,0,0,0,0,0,0,0,1,
scooby_state_40db8d|22|-11 1,0,0,0,0,0,0,0,0,0,0,0,0,0,0,1,
scooby_state_40dc1c|53|18 1,0,0,0,0,0,0,0,0,0,0,0,0,0,0,1,
scooby_state_40d4e0|19|1 1,0,0,0,0,0,0,0,0,0,0,0,0,0,0,1,
scooby_state_40dc38|45|-15 1,0,0,0,0,0,0,0,0,0,0,0,0,0,0,1,
scooby_state_40d685|22|1 1,0,0,0,0,0,0,0,0,0,0,0,0,0,0,1,
scooby_state_40db8d|29|7 1,0,0,0,0,0,0,0,0,0,0,0,0,0,0,1,
scooby_state_40d5dd|52|1 1,0,0,0,0,0,0,0,0,0,0,0,0,0,0,1,
scooby_state_40d8c3|9|0 1,0,0,0,0,0,0,0,0,0,0,0,0,0,0,1,
scooby_state_40dc0f|24|0 1,0,0,0,0,0,0,0,0,0,0,0,0,0,0,1,
scooby_state_40d466|11|1 1,0,0,0,0,0,0,0,0,0,0,0,0,0,0,1,

scooby_action_0_deg_dist 0,15,0,0,0,0,0,0,0,0,0,0,0,0,0,0,
scooby_action_4_deg_dist 0,15,0,0,0,0,0,0,0,0,0,0,0,0,0,0,
scooby_action_32_deg_dist 0,15,0,0,0,0,0,0,0,0,0,0,0,0,0,0,
scooby_action_3_deg_dist 0,22,0,0,0,0,0,0,0,0,0,0,0,0,0,0,
scooby_action_5_deg_dist 0,15,0,0,0,0,0,0,0,0,0,0,0,0,0,0,
scooby_action_1_deg_dist 0,11619,8116,0,18827,0,89713,0,0,0,0,0,0,0,0,0,
scooby_action_30_deg_dist 0,18,0,0,0,0,0,0,0,0,0,0,0,0,0,0,
scooby_action_-3_deg_dist 0,12,0,0,0,0,0,0,0,0,0,0,0,0,0,0,
scooby_action_10_deg_dist 0,24,0,0,0,0,0,0,0,0,0,0,0,0,0,0,
scooby_action_-1_deg_dist 0,16,0,0,0,0,0,0,0,0,0,0,0,0,0,0,
scooby_action_23_deg_dist 0,15,0,0,0,0,0,0,0,0,0,0,0,0,0,0,
scooby_action_-6_deg_dist 0,11,0,0,0,0,0,0,0,0,0,0,0,0,0,0,
scooby_action_11_deg_dist 0,19,0,0,0,0,0,0,0,0,0,0,0,0,0,0,
scooby_action_22_deg_dist 0,20,0,0,0,0,0,0,0,0,0,0,0,0,0,0,
scooby_action_12_deg_dist 0,19,0,0,0,0,0,0,0,0,0,0,0,0,0,0,

scooby_track_called 128511
scooby_track_same_address 22936
scooby_track_evict 105319

scooby_reward_demand_called 128511
scooby_reward_demand_pt_not_found 11183
scooby_reward_demand_pt_found 117328
scooby_reward_demand_pt_found_total 117328
scooby_reward_demand_has_reward 21734
scooby_reward_train_called 8074
scooby_reward_assign_reward_called 105563
scooby_reward_no_pref 15
scooby_reward_incorrect 8059
scooby_reward_correct_untimely 81365
scooby_reward_correct_timely 14229
scooby_reward_out_of_bounds 1895
scooby_reward_tracker_hit 0

scooby_reward_none_low_bw 15
scooby_reward_none_high_bw 0
scooby_reward_incorrect_low_bw 8059
scooby_reward_incorrect_high_bw 0
scooby_reward_correct_untimely_low_bw 81365
scooby_reward_correct_untimely_high_bw 0
scooby_reward_correct_timely_low_bw 14229
scooby_reward_correct_timely_high_bw 0
scooby_reward_out_of_bounds_low_bw 1895
scooby_reward_out_of_bounds_high_bw 0
scooby_reward_tracker_hit_low_bw 0
scooby_reward_tracker_hit_high_bw 0

scooby_reward_1 0,7981,81333,14198,1861,0,
scooby_reward_3 0,4,9,6,0,0,
scooby_reward_4 0,2,7,5,1,0,
scooby_reward_5 0,4,6,2,3,0,
scooby_reward_10 0,10,3,7,0,0,
scooby_reward_11 0,9,2,3,3,0,
scooby_reward_12 0,6,1,5,4,0,
scooby_reward_22 0,11,2,0,5,0,
scooby_reward_23 0,9,1,0,4,0,
scooby_reward_30 0,9,1,1,6,0,
scooby_reward_32 0,6,0,1,8,0,
scooby_reward_-1 0,3,0,0,0,0,
scooby_reward_-3 0,3,0,0,0,0,
scooby_reward_-6 0,2,0,1,0,0,
scooby_reward_0 15,0,0,0,0,0,

scooby_train_called 105318
scooby_train_compute_reward 8074

scooby_register_fill_called 78163
scooby_register_fill_set 14602
scooby_register_fill_set_total 14602

scooby_register_prefetch_hit_called 390924
scooby_register_prefetch_hit_set 104362
scooby_register_prefetch_hit_set_total 104362

scooby_pref_issue_scooby 483150

learning_engine_featurewise.action.called 128511
learning_engine_featurewise.action.explore 251
learning_engine_featurewise.action.exploit 128260
learning_engine_featurewise.action.fallback 0
learning_engine_featurewise.action.dyn_fallback_saved_bw 0
learning_engine_featurewise.action.dyn_fallback_saved_bw_acc 16
learning_engine_featurewise.action.index_1_explored 15
learning_engine_featurewise.action.index_1_exploited 128260
learning_engine_featurewise.action.index_3_explored 22
learning_engine_featurewise.action.index_3_exploited 0
learning_engine_featurewise.action.index_4_explored 15
learning_engine_featurewise.action.index_4_exploited 0
learning_engine_featurewise.action.index_5_explored 15
learning_engine_featurewise.action.index_5_exploited 0
learning_engine_featurewise.action.index_10_explored 24
learning_engine_featurewise.action.index_10_exploited 0
learning_engine_featurewise.action.index_11_explored 19
learning_engine_featurewise.action.index_11_exploited 0
learning_engine_featurewise.action.index_12_explored 19
learning_engine_featurewise.action.index_12_exploited 0
learning_engine_featurewise.action.index_22_explored 20
learning_engine_featurewise.action.index_22_exploited 0
learning_engine_featurewise.action.index_23_explored 15
learning_engine_featurewise.action.index_23_exploited 0
learning_engine_featurewise.action.index_30_explored 18
learning_engine_featurewise.action.index_30_exploited 0
learning_engine_featurewise.action.index_32_explored 15
learning_engine_featurewise.action.index_32_exploited 0
learning_engine_featurewise.action.index_-1_explored 16
learning_engine_featurewise.action.index_-1_exploited 0
learning_engine_featurewise.action.index_-3_explored 12
learning_engine_featurewise.action.index_-3_exploited 0
learning_engine_featurewise.action.index_-6_explored 11
learning_engine_featurewise.action.index_-6_exploited 0
learning_engine_featurewise.action.index_0_explored 15
learning_engine_featurewise.action.index_0_exploited 0
learning_engine_featurewise.learn.called 105318
learning_engine_featurewise.learn.su_skip_PC 0
learning_engine_featurewise.learn.su_skip_PC_Delta 0

learning_engine_featurewise.q_value_histogram.bucket_0 0
learning_engine_featurewise.q_value_histogram.bucket_1 0
learning_engine_featurewise.q_value_histogram.bucket_2 0
learning_engine_featurewise.q_value_histogram.bucket_3 0
learning_engine_featurewise.q_value_histogram.bucket_4 3378
learning_engine_featurewise.q_value_histogram.bucket_5 9754
learning_engine_featurewise.q_value_histogram.bucket_6 115128
learning_engine_featurewise.q_value_histogram.bucket_7 0

learning_engine_featurewise.consensus.total 128260
learning_engine_featurewise.consensus.feature_align_PC 126643
learning_engine_featurewise.consensus.feature_align_PC_ratio 0.99
learning_engine_featurewise.consensus.feature_align_PC_Delta 128062
learning_engine_featurewise.consensus.feature_align_PC_Delta_ratio 1.00
learning_engine_featurewise.consensus.feature_align_all 126445
learning_engine_featurewise.consensus.feature_align_all_ratio 0.99

learning_engine_featurewise.feature_PC_min_weight 1000000.00000000
learning_engine_featurewise.feature_PC_max_weight 0.00000000
learning_engine_featurewise.feature_PC_Delta_min_weight 1000000.00000000
learning_engine_featurewise.feature_PC_Delta_max_weight 0.00000000
unique_pcs 177
unique_pages 940
unique_trigger_pcs 62
total_bitmaps_seen 0
unique_bitmaps_seen 0

scooby_bw_epochs 35130
scooby_bw_level_0 31783
scooby_bw_level_1 2998
scooby_bw_level_2 294
scooby_bw_level_3 55

scooby_ipc_epochs 0
scooby_ipc_level_0 0
scooby_ipc_level_1 0
scooby_ipc_level_2 0
scooby_ipc_level_3 0

scooby_cache_acc_epochs 8722
scooby_cache_acc_level_0 95
scooby_cache_acc_level_1 149
scooby_cache_acc_level_2 200
scooby_cache_acc_level_3 305
scooby_cache_acc_level_4 353
scooby_cache_acc_level_5 776
scooby_cache_acc_level_6 1186
scooby_cache_acc_level_7 1571
scooby_cache_acc_level_8 1495
scooby_cache_acc_level_9 2592

Channel_0_RQ_row_buffer_hit 26524
Channel_0_RQ_row_buffer_miss 10059
Channel_0_WQ_row_buffer_hit 767
Channel_0_WQ_row_buffer_miss 2051
Channel_0_WQ_full 0
Channel_0_dbus_congested 8465

avg_congested_cycle 10

DRAM_bw_pochs 35130
DRAM_bw_level_0 31783
DRAM_bw_level_1 2998
DRAM_bw_level_2 294
DRAM_bw_level_3 55
