Original cmd-> /cluster/home/vlnitu/CA-Lab4-24-vlnitu/Pythia/bin/perceptron-no-multi-no-ship-1core --warmup_instructions=1000000 --simulation_instructions=10000000 --l2c_prefetcher_types=scooby --config=/cluster/home/vlnitu/CA-Lab4-24-vlnitu/Pythia/config/pythia.ini --mail-type=BEGIN,END  -traces /cluster/home/vlnitu/CA-Lab4-24-vlnitu/Pythia/traces/445.gobmk-30B.champsimtrace.xz
*************************************************
   ChampSim Multicore Out-of-Order Simulator
   Last compiled: Nov 19 2024 20:10:11
*************************************************
parsing config file: /cluster/home/vlnitu/CA-Lab4-24-vlnitu/Pythia/config/pythia.ini
unable to parse section: , name: mail-type, value: BEGIN,END

trace_0 /cluster/home/vlnitu/CA-Lab4-24-vlnitu/Pythia/traces/445.gobmk-30B.champsimtrace.xz
adding L2C_PREFETCHER: Scooby
Initialize SHIP state
warmup_instructions 1000000
simulation_instructions 10000000
champsim_seed 165
measure_ipc 0
measure_ipc_epoch 1000
measure_dram_bw 1
measure_dram_bw_epoch 256
measure_cache_acc 1
measure_cache_acc_epoch 1024
l1d_perfect 0
l2c_perfect 0
llc_perfect 0
l1d_semi_perfect 0
l2c_semi_perfect 0
llc_semi_perfect 0
semi_perfect_cache_page_buffer_size 64

num_cpus 1
cpu_freq 4000
dram_io_freq 2400
page_size 4096
block_size 64
max_read_per_cycle 8
max_fill_per_cycle 1
dram_channels 1
log2_dram_channels 0
dram_ranks 1
dram_banks 8
dram_rows 65536
dram_columns 128
dram_row_size 8
dram_size 4096
dram_pages 1048576

fetch_width 6
decode_width 6
exec_width 4
lq_width 2
sq_width 2
retire_width 4
scheduler_size 128
branch_mispredict_penalty 20
rob_size 256
lq_size 72
sq_size 56
num_instr_destinations_sparc 4
num_instr_destinations 2
num_instr_sources 4

itlb_set 16
itlb_way 8
itlb_rq_size 16
itlb_wq_size 16
itlb_pq_size 0
itlb_mshr_size 8
itlb_latency 1

dtlb_set 16
dtlb_way 4
dtlb_rq_size 16
dtlb_wq_size 16
dtlb_pq_size 0
dtlb_mshr_size 8
dtlb_latency 1

stlb_set 128
stlb_way 12
stlb_rq_size 32
stlb_wq_size 32
stlb_pq_size 0
stlb_mshr_size 16
stlb_latency 8

l1i_size 32
l1i_set 64
l1i_way 8
l1i_rq_size 64
l1i_wq_size 64
l1i_pq_size 8
l1i_mshr_size 8
l1i_latency 1

l1d_size 32
l1d_set 64
l1d_way 8
l1d_rq_size 64
l1d_wq_size 64
l1d_pq_size 8
l1d_mshr_size 16
l1d_latency 4

l2c_size 256
l2c_set 512
l2c_way 8
l2c_rq_size 32
l2c_wq_size 32
l2c_pq_size 32
l2c_mshr_size 32
l2c_latency 10

llc_size 2048
llc_set 2048
llc_way 16
llc_rq_size 32
llc_wq_size 32
llc_pq_size 32
llc_mshr_size 64
llc_latency 20

dram_channel_width 8
dram_wq_size 64
dram_rq_size 64
tRP 15
tRCD 15
tCAS 12.5
dram_dbus_turn_around_time 30
dram_write_high_wm 56
dram_write_low_wm 48
min_dram_writes_per_switch 16
dram_mtps 2400
dram_dbus_return_time 13

scooby_alpha 0.0065088
scooby_gamma 0.556301
scooby_epsilon 0.00182284
scooby_state_num_bits 10
scooby_max_states 1024
scooby_seed 200
scooby_policy EGreedy
scooby_learning_type SARSA
scooby_actions 1,3,4,5,10,11,12,22,23,30,32,-1,-3,-6,0,
scooby_max_actions 15
scooby_pt_size 256
scooby_st_size 64
scooby_max_pcs 5
scooby_max_offsets 5
scooby_max_deltas 5
scooby_reward_none -4
scooby_reward_incorrect -8
scooby_reward_correct_untimely 12
scooby_reward_correct_timely 20
scooby_brain_zero_init 0
scooby_enable_reward_all 0
scooby_enable_track_multiple 0
scooby_enable_reward_out_of_bounds 1
scooby_reward_out_of_bounds -12
scooby_state_type 1
scooby_state_hash_type 11
scooby_access_debug 0
scooby_print_access_debug 0
scooby_print_access_debug_pc deadbeef
scooby_print_access_debug_pc_count 0
scooby_print_trace 0
scooby_enable_state_action_stats 1
scooby_enable_reward_tracker_hit 0
scooby_reward_tracker_hit -2
scooby_enable_featurewise_engine 1
scooby_pref_degree 1
scooby_enable_dyn_degree 1
scooby_max_to_avg_q_thresholds 0.5,1,2,
scooby_dyn_degrees 1,2,4,4,
scooby_multi_deg_select_type 2
scooby_last_pref_offset_conf_thresholds 1,3,8,
scooby_dyn_degrees_type2 1,2,4,6,
scooby_action_tracker_size 2
scooby_high_bw_thresh 4
scooby_enable_hbw_reward 1
scooby_reward_hbw_correct_timely 20
scooby_reward_hbw_correct_untimely 12
scooby_reward_hbw_incorrect -14
scooby_reward_hbw_none -2
scooby_reward_hbw_out_of_bounds -12
scooby_reward_hbw_tracker_hit -2
scooby_last_pref_offset_conf_thresholds_hbw 1,3,8,
scooby_dyn_degrees_type2_hbw 1,2,4,6,

le_enable_trace 0
le_trace_interval 0
le_trace_file_name 
le_trace_state 0
le_enable_score_plot 0
le_plot_file_name 
le_plot_actions 
le_enable_action_trace 0
le_action_trace_interval 0
le_action_trace_name 
le_enable_action_plot 0

le_featurewise_active_features PC, PC_Delta
le_featurewise_num_tilings 3,3,
le_featurewise_num_tiles 128,128,
le_featurewise_hash_types 2,2,
le_featurewise_enable_tiling_offset 1,1,
le_featurewise_max_q_thresh 0.5
le_featurewise_enable_action_fallback 1
le_featurewise_feature_weights 1,1,
le_featurewise_enable_dynamic_weight 0
le_featurewise_weight_gradient 0.001
le_featurewise_disable_adjust_weight_all_features_align 1
le_featurewise_selective_update 0
le_featurewise_pooling_type 2
le_featurewise_enable_dyn_action_fallback 1
le_featurewise_bw_acc_check_level 1
le_featurewise_acc_thresh 2
le_featurewise_enable_trace 0
le_featurewise_trace_feature_type 0
le_featurewise_trace_feature 
le_featurewise_trace_interval 0
le_featurewise_trace_record_count 0
le_featurewise_trace_file_name 
le_featurewise_enable_score_plot 0
le_featurewise_plot_actions 
le_featurewise_plot_file_name 


Heartbeat CPU  0 instructions:    1000000 cycles:     861864 heartbeat IPC: 1.16028 cumulative IPC: 1.16028 (Simulation time: 0 hr 0 min 1 sec) 

Warmup complete CPU  0 instructions:    1000004 cycles:     861865 (Simulation time: 0 hr 0 min 1 sec) 

Heartbeat CPU  0 instructions:    2000000 cycles:    3238534 heartbeat IPC: 0.42076 cumulative IPC: 0.42076 (Simulation time: 0 hr 0 min 2 sec) 
Heartbeat CPU  0 instructions:    3000002 cycles:    6004186 heartbeat IPC: 0.36158 cumulative IPC: 0.38893 (Simulation time: 0 hr 0 min 4 sec) 
Heartbeat CPU  0 instructions:    4000000 cycles:    8733799 heartbeat IPC: 0.36635 cumulative IPC: 0.38110 (Simulation time: 0 hr 0 min 5 sec) 
Heartbeat CPU  0 instructions:    5000001 cycles:   11475576 heartbeat IPC: 0.36473 cumulative IPC: 0.37687 (Simulation time: 0 hr 0 min 7 sec) 
Heartbeat CPU  0 instructions:    6000000 cycles:   14248028 heartbeat IPC: 0.36069 cumulative IPC: 0.37352 (Simulation time: 0 hr 0 min 8 sec) 
Heartbeat CPU  0 instructions:    7000001 cycles:   16827473 heartbeat IPC: 0.38768 cumulative IPC: 0.37581 (Simulation time: 0 hr 0 min 9 sec) 
Heartbeat CPU  0 instructions:    8000000 cycles:   19750292 heartbeat IPC: 0.34214 cumulative IPC: 0.37060 (Simulation time: 0 hr 0 min 11 sec) 
Heartbeat CPU  0 instructions:    9000001 cycles:   22458719 heartbeat IPC: 0.36922 cumulative IPC: 0.37042 (Simulation time: 0 hr 0 min 12 sec) 
Heartbeat CPU  0 instructions:   10000003 cycles:   25229270 heartbeat IPC: 0.36094 cumulative IPC: 0.36935 (Simulation time: 0 hr 0 min 14 sec) 
Heartbeat CPU  0 instructions:   11000000 cycles:   27808487 heartbeat IPC: 0.38771 cumulative IPC: 0.37110 (Simulation time: 0 hr 0 min 15 sec) 
Finished CPU 0 instructions: 10000000 cycles: 26946661 cumulative IPC: 0.37110 (Simulation time: 0 hr 0 min 15 sec) 

ChampSim completed all CPUs

[ROI Statistics]
Core_0_instructions 10000000
Core_0_cycles 26946661
Core_0_IPC 0.37110

Core_0_branch_prediction_accuracy 84.21684
Core_0_branch_MPKI 25.41259
Core_0_average_ROB_occupancy_at_mispredict 38.50584

Core_0_L1D_total_access 3226418
Core_0_L1D_total_hit 3194111
Core_0_L1D_total_miss 32307
Core_0_L1D_loads 1864393
Core_0_L1D_load_hit 1844156
Core_0_L1D_load_miss 20237
Core_0_L1D_RFOs 1362025
Core_0_L1D_RFO_hit 1349955
Core_0_L1D_RFO_miss 12070
Core_0_L1D_prefetches 0
Core_0_L1D_prefetch_hit 0
Core_0_L1D_prefetch_miss 0
Core_0_L1D_writebacks 0
Core_0_L1D_writeback_hit 0
Core_0_L1D_writeback_miss 0
Core_0_L1D_prefetch_requested 0
Core_0_L1D_prefetch_dropped 0
Core_0_L1D_prefetch_issued 0
Core_0_L1D_prefetch_filled 0
Core_0_L1D_prefetch_useful 0
Core_0_L1D_prefetch_useless 0
Core_0_L1D_prefetch_late 0
Core_0_L1D_average_miss_latency 45.33197

Core_0_L1D_rq_access 2528410
Core_0_L1D_rq_forward 0
Core_0_L1D_rq_merged 659456
Core_0_L1D_rq_to_cache 1868953
Core_0_L1D_rq_full 0

Core_0_L1D_wq_access 1390582
Core_0_L1D_wq_forward 1
Core_0_L1D_wq_merged 9055
Core_0_L1D_wq_to_cache 1381527
Core_0_L1D_wq_full 0

Core_0_L1D_pq_access 0
Core_0_L1D_pq_forward 0
Core_0_L1D_pq_merged 0
Core_0_L1D_pq_to_cache 0
Core_0_L1D_pq_full 0

Core_0_L1D_acc_epochs 26997
Core_0_L1D_acc_level_0 26997
Core_0_L1D_acc_level_1 0
Core_0_L1D_acc_level_2 0
Core_0_L1D_acc_level_3 0
Core_0_L1D_acc_level_4 0
Core_0_L1D_acc_level_5 0
Core_0_L1D_acc_level_6 0
Core_0_L1D_acc_level_7 0
Core_0_L1D_acc_level_8 0
Core_0_L1D_acc_level_9 0

Core_0_L1I_total_access 1954017
Core_0_L1I_total_hit 1917360
Core_0_L1I_total_miss 36657
Core_0_L1I_loads 1954017
Core_0_L1I_load_hit 1917360
Core_0_L1I_load_miss 36657
Core_0_L1I_RFOs 0
Core_0_L1I_RFO_hit 0
Core_0_L1I_RFO_miss 0
Core_0_L1I_prefetches 0
Core_0_L1I_prefetch_hit 0
Core_0_L1I_prefetch_miss 0
Core_0_L1I_writebacks 0
Core_0_L1I_writeback_hit 0
Core_0_L1I_writeback_miss 0
Core_0_L1I_prefetch_requested 0
Core_0_L1I_prefetch_dropped 0
Core_0_L1I_prefetch_issued 0
Core_0_L1I_prefetch_filled 0
Core_0_L1I_prefetch_useful 0
Core_0_L1I_prefetch_useless 0
Core_0_L1I_prefetch_late 0
Core_0_L1I_average_miss_latency 14.51341

Core_0_L1I_rq_access 9999942
Core_0_L1I_rq_forward 0
Core_0_L1I_rq_merged 8032788
Core_0_L1I_rq_to_cache 1967154
Core_0_L1I_rq_full 0

Core_0_L1I_wq_access 0
Core_0_L1I_wq_forward 0
Core_0_L1I_wq_merged 0
Core_0_L1I_wq_to_cache 0
Core_0_L1I_wq_full 0

Core_0_L1I_pq_access 0
Core_0_L1I_pq_forward 0
Core_0_L1I_pq_merged 0
Core_0_L1I_pq_to_cache 0
Core_0_L1I_pq_full 0

Core_0_L1I_acc_epochs 26997
Core_0_L1I_acc_level_0 26997
Core_0_L1I_acc_level_1 0
Core_0_L1I_acc_level_2 0
Core_0_L1I_acc_level_3 0
Core_0_L1I_acc_level_4 0
Core_0_L1I_acc_level_5 0
Core_0_L1I_acc_level_6 0
Core_0_L1I_acc_level_7 0
Core_0_L1I_acc_level_8 0
Core_0_L1I_acc_level_9 0

Core_0_L2C_total_access 213864
Core_0_L2C_total_hit 194448
Core_0_L2C_total_miss 19416
Core_0_L2C_loads 56894
Core_0_L2C_load_hit 51566
Core_0_L2C_load_miss 5328
Core_0_L2C_RFOs 12069
Core_0_L2C_RFO_hit 9424
Core_0_L2C_RFO_miss 2645
Core_0_L2C_prefetches 127990
Core_0_L2C_prefetch_hit 116655
Core_0_L2C_prefetch_miss 11335
Core_0_L2C_writebacks 16911
Core_0_L2C_writeback_hit 16803
Core_0_L2C_writeback_miss 108
Core_0_L2C_prefetch_requested 156673
Core_0_L2C_prefetch_dropped 120
Core_0_L2C_prefetch_issued 156553
Core_0_L2C_prefetch_filled 11516
Core_0_L2C_prefetch_useful 5166
Core_0_L2C_prefetch_useless 5394
Core_0_L2C_prefetch_late 536
Core_0_L2C_average_miss_latency 142.29120

Core_0_L2C_rq_access 68964
Core_0_L2C_rq_forward 0
Core_0_L2C_rq_merged 0
Core_0_L2C_rq_to_cache 68963
Core_0_L2C_rq_full 0

Core_0_L2C_wq_access 16911
Core_0_L2C_wq_forward 1
Core_0_L2C_wq_merged 0
Core_0_L2C_wq_to_cache 16911
Core_0_L2C_wq_full 0

Core_0_L2C_pq_access 156553
Core_0_L2C_pq_forward 0
Core_0_L2C_pq_merged 25368
Core_0_L2C_pq_to_cache 131185
Core_0_L2C_pq_full 0

Core_0_L2C_acc_epochs 26997
Core_0_L2C_acc_level_0 23504
Core_0_L2C_acc_level_1 1214
Core_0_L2C_acc_level_2 933
Core_0_L2C_acc_level_3 235
Core_0_L2C_acc_level_4 112
Core_0_L2C_acc_level_5 572
Core_0_L2C_acc_level_6 88
Core_0_L2C_acc_level_7 76
Core_0_L2C_acc_level_8 36
Core_0_L2C_acc_level_9 227

Core_0_LLC_total_access 23874
Core_0_LLC_total_hit 10303
Core_0_LLC_total_miss 13571
Core_0_LLC_loads 4792
Core_0_LLC_load_hit 1027
Core_0_LLC_load_miss 3765
Core_0_LLC_RFOs 2645
Core_0_LLC_RFO_hit 1033
Core_0_LLC_RFO_miss 1612
Core_0_LLC_prefetches 11871
Core_0_LLC_prefetch_hit 3677
Core_0_LLC_prefetch_miss 8194
Core_0_LLC_writebacks 4566
Core_0_LLC_writeback_hit 4566
Core_0_LLC_writeback_miss 0
Core_0_LLC_prefetch_requested 0
Core_0_LLC_prefetch_dropped 0
Core_0_LLC_prefetch_issued 0
Core_0_LLC_prefetch_filled 8375
Core_0_LLC_prefetch_useful 391
Core_0_LLC_prefetch_useless 0
Core_0_LLC_prefetch_late 0
Core_0_LLC_average_miss_latency 163.01091

Core_0_LLC_rq_access 7437
Core_0_LLC_rq_forward 0
Core_0_LLC_rq_merged 0
Core_0_LLC_rq_to_cache 7437
Core_0_LLC_rq_full 0

Core_0_LLC_wq_access 4566
Core_0_LLC_wq_forward 0
Core_0_LLC_wq_merged 0
Core_0_LLC_wq_to_cache 4566
Core_0_LLC_wq_full 0

Core_0_LLC_pq_access 12052
Core_0_LLC_pq_forward 0
Core_0_LLC_pq_merged 0
Core_0_LLC_pq_to_cache 12052
Core_0_LLC_pq_full 0

Core_0_LLC_acc_epochs 27157
Core_0_LLC_acc_level_0 26947
Core_0_LLC_acc_level_1 80
Core_0_LLC_acc_level_2 61
Core_0_LLC_acc_level_3 5
Core_0_LLC_acc_level_4 0
Core_0_LLC_acc_level_5 43
Core_0_LLC_acc_level_6 2
Core_0_LLC_acc_level_7 2
Core_0_LLC_acc_level_8 0
Core_0_LLC_acc_level_9 17

Core_0_major_page_fault 0
Core_0_minor_page_fault 1648

scooby_st_lookup 57046
scooby_st_hit 52027
scooby_st_evict 4955
scooby_st_insert 5019
scooby_st_streaming 0

scooby_predict_called 57046
scooby_predict_out_of_bounds 2021
scooby_predict_action_1 47545
scooby_predict_issue_action_1 35926
scooby_predict_hit_action_1 11619
scooby_predict_out_of_bounds_action_1 986
scooby_predict_action_3 4104
scooby_predict_issue_action_3 3367
scooby_predict_hit_action_3 737
scooby_predict_out_of_bounds_action_3 235
scooby_predict_action_4 280
scooby_predict_issue_action_4 267
scooby_predict_hit_action_4 13
scooby_predict_out_of_bounds_action_4 21
scooby_predict_action_5 259
scooby_predict_issue_action_5 251
scooby_predict_hit_action_5 8
scooby_predict_out_of_bounds_action_5 33
scooby_predict_action_10 215
scooby_predict_issue_action_10 205
scooby_predict_hit_action_10 10
scooby_predict_out_of_bounds_action_10 58
scooby_predict_action_11 317
scooby_predict_issue_action_11 269
scooby_predict_hit_action_11 48
scooby_predict_out_of_bounds_action_11 59
scooby_predict_action_12 177
scooby_predict_issue_action_12 168
scooby_predict_hit_action_12 9
scooby_predict_out_of_bounds_action_12 48
scooby_predict_action_22 296
scooby_predict_issue_action_22 271
scooby_predict_hit_action_22 25
scooby_predict_out_of_bounds_action_22 168
scooby_predict_action_23 248
scooby_predict_issue_action_23 241
scooby_predict_hit_action_23 7
scooby_predict_out_of_bounds_action_23 112
scooby_predict_action_30 138
scooby_predict_issue_action_30 125
scooby_predict_hit_action_30 13
scooby_predict_out_of_bounds_action_30 138
scooby_predict_action_32 99
scooby_predict_issue_action_32 92
scooby_predict_hit_action_32 7
scooby_predict_out_of_bounds_action_32 115
scooby_predict_action_-1 309
scooby_predict_issue_action_-1 256
scooby_predict_hit_action_-1 53
scooby_predict_out_of_bounds_action_-1 7
scooby_predict_action_-3 420
scooby_predict_issue_action_-3 383
scooby_predict_hit_action_-3 37
scooby_predict_out_of_bounds_action_-3 17
scooby_predict_action_-6 262
scooby_predict_issue_action_-6 234
scooby_predict_hit_action_-6 28
scooby_predict_out_of_bounds_action_-6 24
scooby_predict_action_0 356
scooby_predict_issue_action_0 0
scooby_predict_hit_action_0 0
scooby_predict_out_of_bounds_action_0 0
scooby_predict_multi_deg_called 29690
scooby_predict_predicted 156673
scooby_predict_multi_deg 114618
scooby_predict_multi_deg_2 28714
scooby_predict_multi_deg_3 24755
scooby_predict_multi_deg_4 24151
scooby_predict_multi_deg_5 18608
scooby_predict_multi_deg_6 18390
scooby_predict_multi_deg_7 0
scooby_predict_multi_deg_8 0
scooby_predict_multi_deg_9 0
scooby_predict_multi_deg_10 0
scooby_predict_multi_deg_11 0
scooby_predict_multi_deg_12 0
scooby_predict_multi_deg_13 0
scooby_predict_multi_deg_14 0
scooby_predict_multi_deg_15 0
scooby_predict_multi_deg_16 0

scooby_selected_deg_1 12365
scooby_selected_deg_2 3157
scooby_selected_deg_3 0
scooby_selected_deg_4 5572
scooby_selected_deg_5 0
scooby_selected_deg_6 20961
scooby_selected_deg_7 0
scooby_selected_deg_8 0
scooby_selected_deg_9 0
scooby_selected_deg_10 0
scooby_selected_deg_11 0
scooby_selected_deg_12 0
scooby_selected_deg_13 0
scooby_selected_deg_14 0
scooby_selected_deg_15 0
scooby_selected_deg_16 0

scooby_state_40a100|4|1 167,0,0,0,0,0,0,0,0,0,0,0,0,0,0,167,
scooby_state_40a0c0|3|1 162,0,1,0,0,0,0,0,0,0,0,0,0,0,0,163,
scooby_state_40b0c0|3|1 158,0,0,0,0,0,0,0,0,0,0,0,0,0,0,158,
scooby_state_43a136|4|1 140,0,0,0,0,0,0,0,0,0,0,0,0,0,0,140,
scooby_state_43a0c2|3|1 130,0,0,0,0,0,0,0,0,0,0,0,0,0,0,130,
scooby_state_40a180|6|1 98,0,2,0,0,1,0,0,5,1,0,2,2,2,1,114,
scooby_state_43e132|4|1 112,0,2,0,0,0,0,0,0,0,0,0,0,0,0,114,
scooby_state_40a144|5|1 113,0,0,0,0,0,0,0,0,0,0,0,0,0,0,113,
scooby_state_40713c|4|1 107,0,0,0,0,0,0,0,0,0,0,0,0,0,0,107,
scooby_state_4070c2|3|1 107,0,0,0,0,0,0,0,0,0,0,0,0,0,0,107,
scooby_state_43a1c0|7|1 106,0,0,0,0,0,0,0,0,0,0,0,0,0,0,106,
scooby_state_43d1e2|7|1 104,0,0,0,0,0,0,0,0,0,0,0,0,0,0,104,
scooby_state_43d201|8|1 98,0,0,0,0,0,0,0,0,0,0,0,0,0,0,98,
scooby_state_40812e|4|1 83,15,0,0,0,0,0,0,0,0,0,0,0,0,0,98,
scooby_state_43ef80|62|1 97,0,0,0,0,0,0,0,0,0,0,0,0,0,0,97,
scooby_state_405f81|62|1 86,0,0,0,1,4,1,1,0,0,0,0,0,0,0,93,
scooby_state_43b081|2|1 92,0,0,0,0,0,0,0,0,0,0,0,0,0,0,92,
scooby_state_43f204|8|1 48,1,0,0,0,43,0,0,0,0,0,0,0,0,0,92,
scooby_state_43a140|5|1 14,77,0,0,0,0,0,0,0,0,0,0,0,0,0,91,
scooby_state_439fc3|63|1 54,14,0,0,1,2,0,0,1,2,0,14,1,1,0,90,
scooby_state_43f1a7|6|1 90,0,0,0,0,0,0,0,0,0,0,0,0,0,0,90,
scooby_state_43f140|5|1 89,0,0,0,0,0,0,0,0,0,0,0,0,0,0,89,
scooby_state_405f42|61|1 87,1,0,0,0,0,0,0,0,0,0,0,0,0,0,88,
scooby_state_4389c2|39|1 87,0,0,0,0,0,0,0,0,0,0,0,0,0,0,87,
scooby_state_4410c0|3|1 84,0,0,0,0,0,0,0,0,0,0,0,0,0,0,84,
scooby_state_43d04f|1|1 83,0,0,0,0,0,0,0,0,0,0,0,0,0,0,83,
scooby_state_441164|5|2 77,2,0,1,0,0,0,0,0,0,0,0,1,0,0,81,
scooby_state_43a190|6|1 0,81,0,0,0,0,0,0,0,0,0,0,0,0,0,81,
scooby_state_43d184|6|1 80,0,0,0,0,0,0,0,0,0,0,0,0,0,0,80,
scooby_state_441103|4|-1 25,54,0,0,0,0,0,0,0,0,0,0,0,0,0,79,
scooby_state_4051c1|7|1 70,1,0,0,3,4,0,0,0,0,0,0,0,0,0,78,
scooby_state_4051a6|6|1 74,4,0,0,0,0,0,0,0,0,0,0,0,0,0,78,
scooby_state_44a100|4|1 77,0,0,0,0,0,0,0,0,0,0,0,0,0,0,77,
scooby_state_408f85|62|1 77,0,0,0,0,0,0,0,0,0,0,0,0,0,0,77,
scooby_state_43a945|37|1 77,0,0,0,0,0,0,0,0,0,0,0,0,0,0,77,
scooby_state_4059c3|39|1 49,25,0,0,2,0,0,0,0,0,0,0,0,0,0,76,
scooby_state_449f83|62|1 76,0,0,0,0,0,0,0,0,0,0,0,0,0,0,76,
scooby_state_44a140|5|1 75,0,0,0,0,0,0,0,0,0,0,0,0,0,0,75,
scooby_state_44a0c3|3|1 74,0,0,0,0,0,0,0,0,0,0,0,0,0,0,74,
scooby_state_405998|38|1 74,0,0,0,0,0,0,0,0,0,0,0,0,0,0,74,
scooby_state_43afc2|63|1 73,0,0,0,0,0,0,0,0,0,0,0,0,0,0,73,
scooby_state_43e008|0|-2 72,0,0,0,0,0,0,0,0,0,0,0,0,0,1,73,
scooby_state_405952|37|1 73,0,0,0,0,0,0,0,0,0,0,0,0,0,0,73,
scooby_state_43ff42|61|1 73,0,0,0,0,0,0,0,0,0,0,0,0,0,0,73,
scooby_state_407186|6|1 73,0,0,0,0,0,0,0,0,0,0,0,0,0,0,73,
scooby_state_43dfc3|63|1 50,15,1,0,2,1,1,1,1,0,0,0,0,0,0,72,
scooby_state_43a904|36|1 71,0,0,0,0,0,0,0,0,0,0,0,0,0,0,71,
scooby_state_43af42|61|1 71,0,0,0,0,0,0,0,0,0,0,0,0,0,0,71,
scooby_state_439081|2|1 61,9,0,0,0,0,0,0,0,0,0,0,0,0,0,70,
scooby_state_4079c1|39|1 70,0,0,0,0,0,0,0,0,0,0,0,0,0,0,70,
scooby_state_43af80|62|1 70,0,0,0,0,0,0,0,0,0,0,0,0,0,0,70,
scooby_state_40bc02|48|1 67,0,0,0,0,0,1,0,0,0,0,0,0,0,1,69,
scooby_state_405907|36|1 68,0,0,0,0,0,0,0,0,0,0,0,0,0,0,68,
scooby_state_441083|2|1 67,0,0,0,0,0,0,0,0,0,0,0,0,0,0,67,
scooby_state_43d481|18|1 64,1,0,0,0,0,0,0,0,0,0,0,0,0,0,65,
scooby_state_441353|13|9 65,0,0,0,0,0,0,0,0,0,0,0,0,0,0,65,
scooby_state_449f47|61|1 65,0,0,0,0,0,0,0,0,0,0,0,0,0,0,65,
scooby_state_449fc6|63|1 25,0,2,2,0,1,2,2,1,2,1,18,1,8,0,65,
scooby_state_43ec6a|49|1 65,0,0,0,0,0,0,0,0,0,0,0,0,0,0,65,
scooby_state_40df84|62|1 64,0,0,0,0,0,0,0,0,0,0,0,0,0,0,64,
scooby_state_404904|36|1 64,0,0,0,0,0,0,0,0,0,0,0,0,0,0,64,
scooby_state_43cf40|61|1 63,0,0,0,0,0,0,0,0,0,0,0,0,0,0,63,
scooby_state_407143|5|1 63,0,0,0,0,0,0,0,0,0,0,0,0,0,0,63,
scooby_state_40b143|5|1 63,0,0,0,0,0,0,0,0,0,0,0,0,0,0,63,
scooby_state_44a083|2|1 63,0,0,0,0,0,0,0,0,0,0,0,0,0,0,63,
scooby_state_40af44|61|24 63,0,0,0,0,0,0,0,0,0,0,0,0,0,0,63,
scooby_state_4086a8|26|22 62,0,0,0,0,0,0,0,0,0,0,0,0,0,0,62,
scooby_state_44a047|1|1 62,0,0,0,0,0,0,0,0,0,0,0,0,0,0,62,
scooby_state_40c9dd|39|2 57,3,1,0,0,0,0,0,0,0,0,0,0,0,0,61,
scooby_state_40e143|5|1 61,0,0,0,0,0,0,0,0,0,0,0,0,0,0,61,
scooby_state_409105|4|0 55,0,0,0,0,5,0,0,0,0,0,0,0,0,0,60,
scooby_state_43c9c7|39|1 17,3,1,1,1,1,1,34,0,0,0,0,1,0,0,60,
scooby_state_4409c1|39|1 34,0,0,0,0,25,0,0,0,0,0,0,0,0,0,59,
scooby_state_43d094|2|1 29,30,0,0,0,0,0,0,0,0,0,0,0,0,0,59,
scooby_state_4404c4|19|2 59,0,0,0,0,0,0,0,0,0,0,0,0,0,0,59,
scooby_state_4064c6|19|1 46,5,1,0,0,0,0,0,0,0,0,6,0,0,0,58,
scooby_state_43b984|38|1 57,0,0,0,0,0,0,0,0,0,0,0,0,0,0,57,
scooby_state_43a980|38|1 57,0,0,0,0,0,0,0,0,0,0,0,0,0,0,57,
scooby_state_449c44|49|1 56,0,0,0,0,0,0,0,0,0,0,0,0,0,0,56,
scooby_state_43d9c3|39|1 56,0,0,0,0,0,0,0,0,0,0,0,0,0,0,56,
scooby_state_4071c0|7|1 29,0,1,1,0,0,1,1,1,22,0,0,0,0,0,56,
scooby_state_449c20|48|-15 55,0,0,0,0,0,0,0,0,0,0,0,0,0,0,55,
scooby_state_409040|1|1 25,30,0,0,0,0,0,0,0,0,0,0,0,0,0,55,
scooby_state_40b103|4|1 52,0,0,0,0,0,0,0,0,0,0,0,0,0,0,52,
scooby_state_43cf80|62|1 52,0,0,0,0,0,0,0,0,0,0,0,0,0,0,52,
scooby_state_438f83|62|1 52,0,0,0,0,0,0,0,0,0,0,0,0,0,0,52,
scooby_state_449c83|50|1 52,0,0,0,0,0,0,0,0,0,0,0,0,0,0,52,
scooby_state_449d18|52|1 51,0,0,0,0,0,0,0,0,0,0,0,0,0,0,51,
scooby_state_40e1a9|6|4 42,9,0,0,0,0,0,0,0,0,0,0,0,0,0,51,
scooby_state_440f40|61|-1 51,0,0,0,0,0,0,0,0,0,0,0,0,0,0,51,
scooby_state_43e0ef|3|1 50,0,0,0,0,0,0,0,0,0,0,0,0,0,0,50,
scooby_state_449cc1|51|1 50,0,0,0,0,0,0,0,0,0,0,0,0,0,0,50,
scooby_state_4063a1|14|1 49,0,0,0,0,0,0,0,0,0,0,0,0,0,0,49,
scooby_state_43ec00|48|1 48,0,0,0,0,1,0,0,0,0,0,0,0,0,0,49,
scooby_state_40b10d|4|1 49,0,0,0,0,0,0,0,0,0,0,0,0,0,0,49,
scooby_state_40deff|17|0 27,1,0,2,1,2,1,2,1,2,2,2,2,2,2,49,
scooby_state_40b902|36|1 48,1,0,0,0,0,0,0,0,0,0,0,0,0,0,49,
scooby_state_40e1c1|7|1 48,0,0,0,0,0,0,0,0,0,1,0,0,0,0,49,
scooby_state_409003|0|-4 33,15,0,0,0,0,0,0,0,0,0,0,0,0,0,48,
scooby_state_406481|18|1 48,0,0,0,0,0,0,0,0,0,0,0,0,0,0,48,
scooby_state_43a200|8|1 48,0,0,0,0,0,0,0,0,0,0,0,0,0,0,48,
scooby_state_43ef76|61|57 48,0,0,0,0,0,0,0,0,0,0,0,0,0,0,48,
scooby_state_43d170|5|3 48,0,0,0,0,0,0,0,0,0,0,0,0,0,0,48,
scooby_state_440981|38|1 47,0,0,0,0,0,0,0,0,0,0,0,0,0,0,47,
scooby_state_441381|14|1 47,0,0,0,0,0,0,0,0,0,0,0,0,0,0,47,
scooby_state_43a044|1|1 46,0,0,0,0,0,0,0,0,0,0,0,0,0,0,46,
scooby_state_406046|1|1 46,0,0,0,0,0,0,0,0,0,0,0,0,0,0,46,
scooby_state_4063c0|15|1 45,1,0,0,0,0,0,0,0,0,0,0,0,0,0,46,
scooby_state_40bcc1|51|1 45,0,0,0,1,0,0,0,0,0,0,0,0,0,0,46,
scooby_state_43ff35|60|43 46,0,0,0,0,0,0,0,0,0,0,0,0,0,0,46,
scooby_state_43a480|18|1 46,0,0,0,0,0,0,0,0,0,0,0,0,0,0,46,
scooby_state_40b1c1|7|1 45,0,0,0,0,0,0,0,0,0,0,0,0,0,0,45,
scooby_state_440f8e|62|2 44,0,0,0,0,0,0,0,0,0,1,0,0,0,0,45,
scooby_state_43e1c0|7|1 45,0,0,0,0,0,0,0,0,0,0,0,0,0,0,45,
scooby_state_405f03|60|1 45,0,0,0,0,0,0,0,0,0,0,0,0,0,0,45,
scooby_state_40b941|37|1 44,0,0,0,0,0,0,0,0,0,0,0,0,0,0,44,
scooby_state_4082af|10|-16 27,2,1,2,0,1,0,0,1,0,0,1,1,8,0,44,
scooby_state_43b081|2|0 37,1,0,1,0,1,0,1,1,2,0,0,0,0,0,44,
scooby_state_438fc3|63|24 40,0,1,0,0,1,1,0,1,0,0,0,0,0,0,44,
scooby_state_440cd0|51|1 44,0,0,0,0,0,0,0,0,0,0,0,0,0,0,44,
scooby_state_43ac80|50|1 42,0,0,0,0,0,0,0,0,0,0,0,0,0,0,42,
scooby_state_43dfa8|62|60 42,0,0,0,0,0,0,0,0,0,0,0,0,0,0,42,
scooby_state_43b6a0|26|24 42,0,0,0,0,0,0,0,0,0,0,0,0,0,0,42,
scooby_state_44051e|20|1 42,0,0,0,0,0,0,0,0,0,0,0,0,0,0,42,
scooby_state_43f130|4|-57 41,0,0,0,0,0,0,0,0,0,0,0,0,0,0,41,
scooby_state_40a6c1|27|1 41,0,0,0,0,0,0,0,0,0,0,0,0,0,0,41,
scooby_state_439183|6|1 41,0,0,0,0,0,0,0,0,0,0,0,0,0,0,41,
scooby_state_449d43|53|1 41,0,0,0,0,0,0,0,0,0,0,0,0,0,0,41,
scooby_state_40bc41|49|1 40,0,0,0,0,0,0,0,0,0,0,0,0,0,0,40,
scooby_state_43f1e0|7|1 40,0,0,0,0,0,0,0,0,0,0,0,0,0,0,40,
scooby_state_43dd25|52|13 40,0,0,0,0,0,0,0,0,0,0,0,0,0,0,40,
scooby_state_43b964|37|2 40,0,0,0,0,0,0,0,0,0,0,0,0,0,0,40,
scooby_state_40bc83|50|1 39,0,0,0,0,0,0,0,0,0,0,0,0,0,0,39,
scooby_state_40a180|6|2 35,0,0,0,0,0,3,0,1,0,0,0,0,0,0,39,
scooby_state_409105|4|3 26,0,0,0,0,5,0,0,0,0,0,0,8,0,0,39,
scooby_state_43a9c1|39|1 39,0,0,0,0,0,0,0,0,0,0,0,0,0,0,39,
scooby_state_40df0f|4|0 19,1,3,1,0,2,2,0,1,2,3,0,1,1,3,39,
scooby_state_43fd44|53|1 38,0,0,0,0,0,0,0,0,0,0,0,0,0,0,38,
scooby_state_43b070|1|-1 38,0,0,0,0,0,0,0,0,0,0,0,0,0,0,38,
scooby_state_457b53|28|8 3,0,3,0,3,2,0,12,6,0,0,0,3,3,3,38,
scooby_state_4391c2|7|1 38,0,0,0,0,0,0,0,0,0,0,0,0,0,0,38,
scooby_state_40af85|62|1 32,0,0,1,1,0,2,1,0,1,0,0,0,0,0,38,
scooby_state_4575f2|47|7 3,2,1,4,0,3,3,3,3,3,1,6,3,0,3,38,
scooby_state_40df0f|53|0 18,5,2,2,0,1,1,0,0,1,2,1,1,0,4,38,
scooby_state_405480|18|1 38,0,0,0,0,0,0,0,0,0,0,0,0,0,0,38,
scooby_state_40c942|37|1 38,0,0,0,0,0,0,0,0,0,0,0,0,0,0,38,
scooby_state_43a0b0|2|-35 26,11,0,0,0,0,0,0,0,0,0,0,0,0,0,37,
scooby_state_439000|0|-2 37,0,0,0,0,0,0,0,0,0,0,0,0,0,0,37,
scooby_state_43f4c3|19|1 37,0,0,0,0,0,0,0,0,0,0,0,0,0,0,37,
scooby_state_43d381|14|1 25,12,0,0,0,0,0,0,0,0,0,0,0,0,0,37,
scooby_state_43ecb3|50|1 36,0,0,0,0,0,0,0,0,0,0,0,0,0,0,36,
scooby_state_40e063|52|0 36,0,0,0,0,0,0,0,0,0,0,0,0,0,0,36,
scooby_state_40df0f|30|0 13,4,0,1,2,2,1,0,2,1,0,1,2,2,5,36,
scooby_state_43d000|0|-63 36,0,0,0,0,0,0,0,0,0,0,0,0,0,0,36,
scooby_state_43b903|36|-2 27,9,0,0,0,0,0,0,0,0,0,0,0,0,0,36,
scooby_state_43921e|8|6 36,0,0,0,0,0,0,0,0,0,0,0,0,0,0,36,
scooby_state_440f06|60|1 36,0,0,0,0,0,0,0,0,0,0,0,0,0,0,36,
scooby_state_40b8c0|35|1 35,0,0,0,0,0,0,0,0,0,0,0,0,0,0,35,
scooby_state_457b53|20|7 7,3,1,3,3,0,3,2,2,3,0,3,3,2,0,35,
scooby_state_440c82|50|1 35,0,0,0,0,0,0,0,0,0,0,0,0,0,0,35,
scooby_state_43a210|8|1 35,0,0,0,0,0,0,0,0,0,0,0,0,0,0,35,
scooby_state_4060d8|3|1 35,0,0,0,0,0,0,0,0,0,0,0,0,0,0,35,
scooby_state_43d44e|17|2 14,20,0,0,0,0,0,1,0,0,0,0,0,0,0,35,
scooby_state_40b740|29|1 35,0,0,0,0,0,0,0,0,0,0,0,0,0,0,35,
scooby_state_4575f2|43|8 5,11,1,0,0,2,1,0,2,1,3,3,2,3,1,35,
scooby_state_449e49|57|2 32,2,0,0,0,0,0,1,0,0,0,0,0,0,0,35,
scooby_state_404f60|61|-1 35,0,0,0,0,0,0,0,0,0,0,0,0,0,0,35,
scooby_state_43df41|61|-2 35,0,0,0,0,0,0,0,0,0,0,0,0,0,0,35,
scooby_state_41e0ba|29|3 34,0,0,0,0,0,0,0,0,0,0,0,0,0,0,34,
scooby_state_43ed09|52|1 34,0,0,0,0,0,0,0,0,0,0,0,0,0,0,34,
scooby_state_44071a|28|2 33,1,0,0,0,0,0,0,0,0,0,0,0,0,0,34,
scooby_state_40df0f|18|0 18,0,1,2,4,3,0,0,1,1,1,1,0,1,1,34,
scooby_state_439719|28|2 34,0,0,0,0,0,0,0,0,0,0,0,0,0,0,34,
scooby_state_407360|13|6 34,0,0,0,0,0,0,0,0,0,0,0,0,0,0,34,
scooby_state_40a484|18|1 34,0,0,0,0,0,0,0,0,0,0,0,0,0,0,34,
scooby_state_438c00|48|1 34,0,0,0,0,0,0,0,0,0,0,0,0,0,0,34,
scooby_state_408984|38|1 34,0,0,0,0,0,0,0,0,0,0,0,0,0,0,34,
scooby_state_43e0ef|3|3 34,0,0,0,0,0,0,0,0,0,0,0,0,0,0,34,
scooby_state_40bd00|52|1 8,26,0,0,0,0,0,0,0,0,0,0,0,0,0,34,
scooby_state_44a008|0|-41 33,0,0,0,0,0,0,0,0,0,0,0,0,0,0,33,
scooby_state_43f082|2|1 33,0,0,0,0,0,0,0,0,0,0,0,0,0,0,33,
scooby_state_40b086|2|-6 33,0,0,0,0,0,0,0,0,0,0,0,0,0,0,33,
scooby_state_43fec0|59|-2 33,0,0,0,0,0,0,0,0,0,0,0,0,0,0,33,
scooby_state_40df0f|48|0 9,0,0,2,1,2,2,2,2,0,1,2,3,0,7,33,
scooby_state_439744|29|1 33,0,0,0,0,0,0,0,0,0,0,0,0,0,0,33,
scooby_state_40b201|8|1 32,0,0,0,0,0,0,0,0,0,0,0,0,0,0,32,
scooby_state_43e0b8|2|-60 32,0,0,0,0,0,0,0,0,0,0,0,0,0,0,32,
scooby_state_439f90|62|60 32,0,0,0,0,0,0,0,0,0,0,0,0,0,0,32,
scooby_state_457b53|35|7 7,3,1,3,3,0,0,2,2,3,2,0,3,0,3,32,
scooby_state_43f383|14|1 32,0,0,0,0,0,0,0,0,0,0,0,0,0,0,32,
scooby_state_40b704|28|1 0,32,0,0,0,0,0,0,0,0,0,0,0,0,0,32,
scooby_state_40df0f|55|0 11,0,1,2,0,1,2,2,2,1,1,1,0,2,6,32,
scooby_state_44a205|8|1 29,0,0,0,0,0,0,0,0,0,0,0,3,0,0,32,
scooby_state_44a182|6|1 32,0,0,0,0,0,0,0,0,0,0,0,0,0,0,32,
scooby_state_41e0ba|3|3 31,0,0,0,0,0,0,0,1,0,0,0,0,0,0,32,
scooby_state_439081|2|-6 22,10,0,0,0,0,0,0,0,0,0,0,0,0,0,32,
scooby_state_449f20|60|0 32,0,0,0,0,0,0,0,0,0,0,0,0,0,0,32,
scooby_state_40df0f|34|0 15,1,1,0,1,3,1,1,2,0,0,1,2,1,3,32,
scooby_state_406340|13|1 32,0,0,0,0,0,0,0,0,0,0,0,0,0,0,32,
scooby_state_43c322|12|-27 31,0,0,0,0,0,0,0,0,0,0,0,0,0,0,31,
scooby_state_43ecc0|51|1 0,31,0,0,0,0,0,0,0,0,0,0,0,0,0,31,
scooby_state_40ce08|56|5 31,0,0,0,0,0,0,0,0,0,0,0,0,0,0,31,
scooby_state_40df0f|61|0 18,1,1,2,1,1,2,0,1,0,0,0,1,1,2,31,
scooby_state_43cf02|60|1 31,0,0,0,0,0,0,0,0,0,0,0,0,0,0,31,
scooby_state_40df0f|44|0 19,2,1,1,0,0,0,2,1,0,0,0,2,2,1,31,
scooby_state_40df0f|31|0 17,2,1,0,3,1,1,1,0,0,1,0,3,0,1,31,
scooby_state_457b53|43|8 2,0,4,0,2,2,0,11,0,0,2,2,2,2,2,31,
scooby_state_457b53|47|7 6,2,0,2,2,0,2,2,1,2,4,2,2,2,2,31,
scooby_state_40df0f|6|0 16,1,0,2,1,3,1,2,0,2,0,0,0,2,1,31,
scooby_state_40c902|36|1 31,0,0,0,0,0,0,0,0,0,0,0,0,0,0,31,
scooby_state_40df62|61|-2 28,3,0,0,0,0,0,0,0,0,0,0,0,0,0,31,
scooby_state_44aa41|41|1 31,0,0,0,0,0,0,0,0,0,0,0,0,0,0,31,
scooby_state_440e5c|57|1 25,5,0,0,0,0,0,0,0,0,0,0,0,0,0,30,
scooby_state_43d3c0|15|1 11,19,0,0,0,0,0,0,0,0,0,0,0,0,0,30,
scooby_state_43a8e0|35|-28 30,0,0,0,0,0,0,0,0,0,0,0,0,0,0,30,
scooby_state_438f40|61|-2 29,0,0,0,0,1,0,0,0,0,0,0,0,0,0,30,
scooby_state_40df0f|37|0 18,1,0,0,0,1,0,0,2,0,0,1,1,2,4,30,
scooby_state_40df0f|25|0 16,0,2,0,0,0,1,2,2,1,0,2,1,2,1,30,
scooby_state_439142|5|1 30,0,0,0,0,0,0,0,0,0,0,0,0,0,0,30,
scooby_state_4575f2|35|7 3,2,1,3,0,3,3,0,3,3,0,0,3,3,3,30,
scooby_state_43fe05|56|1 30,0,0,0,0,0,0,0,0,0,0,0,0,0,0,30,
scooby_state_43e0b8|2|1 30,0,0,0,0,0,0,0,0,0,0,0,0,0,0,30,
scooby_state_43d101|4|1 30,0,0,0,0,0,0,0,0,0,0,0,0,0,0,30,
scooby_state_40e080|2|-3 16,14,0,0,0,0,0,0,0,0,0,0,0,0,0,30,
scooby_state_43ffc0|63|6 27,1,1,0,0,0,1,0,0,0,0,0,0,0,0,30,
scooby_state_40df0f|41|0 17,3,1,0,0,0,1,1,1,1,2,2,0,0,1,30,
scooby_state_40df0f|35|0 17,1,1,1,1,0,0,1,0,0,1,1,2,2,2,30,
scooby_state_40df0f|22|0 20,1,2,1,1,0,0,1,0,0,0,1,1,1,1,30,
scooby_state_43d9bf|38|19 30,0,0,0,0,0,0,0,0,0,0,0,0,0,0,30,
scooby_state_40df0f|2|0 15,1,0,1,3,0,1,0,1,2,1,0,2,2,1,30,
scooby_state_43b6c0|27|1 30,0,0,0,0,0,0,0,0,0,0,0,0,0,0,30,
scooby_state_41e0ba|60|3 30,0,0,0,0,0,0,0,0,0,0,0,0,0,0,30,
scooby_state_44a1ee|7|2 30,0,0,0,0,0,0,0,0,0,0,0,0,0,0,30,
scooby_state_43dfc3|63|61 30,0,0,0,0,0,0,0,0,0,0,0,0,0,0,30,
scooby_state_40dfe3|63|1 27,2,0,0,0,0,0,0,0,0,0,0,0,0,0,29,
scooby_state_43ed45|53|1 29,0,0,0,0,0,0,0,0,0,0,0,0,0,0,29,
scooby_state_40df0f|13|0 17,3,1,1,0,0,1,3,0,1,0,0,1,0,1,29,
scooby_state_43d342|13|1 29,0,0,0,0,0,0,0,0,0,0,0,0,0,0,29,
scooby_state_457b53|23|7 5,1,1,2,2,0,1,2,3,2,2,3,2,1,2,29,
scooby_state_40d101|4|1 29,0,0,0,0,0,0,0,0,0,0,0,0,0,0,29,
scooby_state_43b8c7|35|1 0,29,0,0,0,0,0,0,0,0,0,0,0,0,0,29,
scooby_state_4058c1|35|1 29,0,0,0,0,0,0,0,0,0,0,0,0,0,0,29,
scooby_state_40df0f|14|0 11,3,1,2,0,2,1,0,0,3,0,2,0,1,2,28,
scooby_state_40df0f|1|0 10,3,3,2,1,2,1,0,0,2,1,0,1,1,1,28,
scooby_state_41e0f1|16|-2 28,0,0,0,0,0,0,0,0,0,0,0,0,0,0,28,
scooby_state_40df0f|58|0 14,1,1,2,0,1,1,2,0,0,1,0,1,0,4,28,
scooby_state_43a478|17|9 28,0,0,0,0,0,0,0,0,0,0,0,0,0,0,28,
scooby_state_457b53|62|7 5,2,0,2,2,2,2,2,1,2,2,0,2,2,2,28,
scooby_state_43b740|29|1 28,0,0,0,0,0,0,0,0,0,0,0,0,0,0,28,
scooby_state_40af44|61|1 28,0,0,0,0,0,0,0,0,0,0,0,0,0,0,28,
scooby_state_43a702|28|1 28,0,0,0,0,0,0,0,0,0,0,0,0,0,0,28,
scooby_state_43a190|6|2 0,28,0,0,0,0,0,0,0,0,0,0,0,0,0,28,
scooby_state_41e0ba|16|3 28,0,0,0,0,0,0,0,0,0,0,0,0,0,0,28,
scooby_state_4579c3|39|1 28,0,0,0,0,0,0,0,0,0,0,0,0,0,0,28,
scooby_state_40b086|2|-4 28,0,0,0,0,0,0,0,0,0,0,0,0,0,0,28,
scooby_state_40a0a0|2|-59 28,0,0,0,0,0,0,0,0,0,0,0,0,0,0,28,
scooby_state_438a00|40|1 16,12,0,0,0,0,0,0,0,0,0,0,0,0,0,28,
scooby_state_40e12a|4|3 28,0,0,0,0,0,0,0,0,0,0,0,0,0,0,28,
scooby_state_43b9d8|39|10 28,0,0,0,0,0,0,0,0,0,0,0,0,0,0,28,
scooby_state_40b501|20|1 15,13,0,0,0,0,0,0,0,0,0,0,0,0,0,28,
scooby_state_40df0f|54|0 16,2,1,1,1,0,0,1,3,1,0,2,0,0,0,28,
scooby_state_44a741|29|1 23,0,0,1,0,0,0,1,1,0,1,0,0,0,0,27,
scooby_state_40b6c0|27|24 18,9,0,0,0,0,0,0,0,0,0,0,0,0,0,27,
scooby_state_405010|0|-62 27,0,0,0,0,0,0,0,0,0,0,0,0,0,0,27,
scooby_state_43b712|28|1 27,0,0,0,0,0,0,0,0,0,0,0,0,0,0,27,
scooby_state_43da2f|40|20 27,0,0,0,0,0,0,0,0,0,0,0,0,0,0,27,
scooby_state_40df0f|45|0 12,1,1,3,0,0,0,2,1,1,0,1,1,1,3,27,
scooby_state_43f440|17|-2 27,0,0,0,0,0,0,0,0,0,0,0,0,0,0,27,
scooby_state_43d080|2|-38 26,0,0,0,0,0,1,0,0,0,0,0,0,0,0,27,
scooby_state_43c206|8|1 27,0,0,0,0,0,0,0,0,0,0,0,0,0,0,27,
scooby_state_40df0f|56|0 15,0,1,2,0,0,1,1,0,1,3,0,2,1,0,27,
scooby_state_40c942|37|0 13,14,0,0,0,0,0,0,0,0,0,0,0,0,0,27,
scooby_state_405ee0|59|52 27,0,0,0,0,0,0,0,0,0,0,0,0,0,0,27,
scooby_state_439483|18|1 25,1,0,0,0,0,0,0,0,0,0,0,0,0,0,26,
scooby_state_40df0f|42|0 9,1,1,2,0,1,1,1,1,2,1,3,0,1,2,26,
scooby_state_4575f2|50|7 3,2,1,2,0,3,0,3,3,3,0,0,3,0,3,26,
scooby_state_41e0ba|1|0 26,0,0,0,0,0,0,0,0,0,0,0,0,0,0,26,
scooby_state_43ee48|57|2 26,0,0,0,0,0,0,0,0,0,0,0,0,0,0,26,
scooby_state_40df0f|52|0 13,0,0,0,3,0,0,1,2,1,1,2,0,0,3,26,
scooby_state_457b53|41|7 4,2,1,2,2,0,0,2,2,2,2,2,2,1,2,26,
scooby_state_40df0f|33|0 8,3,2,2,1,2,0,0,2,0,1,1,0,1,3,26,
scooby_state_40be02|56|1 24,2,0,0,0,0,0,0,0,0,0,0,0,0,0,26,
scooby_state_40df0f|3|0 12,0,1,1,0,0,1,1,3,1,1,2,1,0,2,26,
scooby_state_40df0f|16|0 9,2,1,1,1,0,4,0,0,0,1,3,1,0,3,26,
scooby_state_40df0f|7|0 11,2,0,2,1,2,0,1,0,0,1,1,0,2,3,26,
scooby_state_43ad01|52|1 26,0,0,0,0,0,0,0,0,0,0,0,0,0,0,26,
scooby_state_43e20b|8|4 15,0,0,0,1,0,0,3,2,5,0,0,0,0,0,26,
scooby_state_4389b0|38|-25 26,0,0,0,0,0,0,0,0,0,0,0,0,0,0,26,
scooby_state_43e6c6|27|1 26,0,0,0,0,0,0,0,0,0,0,0,0,0,0,26,
scooby_state_43fd0b|52|38 26,0,0,0,0,0,0,0,0,0,0,0,0,0,0,26,
scooby_state_440ad5|10|0 26,0,0,0,0,0,0,0,0,0,0,0,0,0,0,26,
scooby_state_457b53|55|8 2,0,2,0,2,2,0,8,2,0,2,0,2,2,2,26,
scooby_state_40df0f|57|0 11,1,2,1,0,0,1,1,1,0,3,0,0,1,3,25,
scooby_state_43a8e0|35|-26 25,0,0,0,0,0,0,0,0,0,0,0,0,0,0,25,
scooby_state_40dfe3|63|0 25,0,0,0,0,0,0,0,0,0,0,0,0,0,0,25,
scooby_state_40df0f|26|0 14,1,1,0,0,1,2,0,2,2,0,1,0,0,1,25,
scooby_state_408f68|61|59 25,0,0,0,0,0,0,0,0,0,0,0,0,0,0,25,
scooby_state_41e0ba|0|0 25,0,0,0,0,0,0,0,0,0,0,0,0,0,0,25,
scooby_state_41e212|35|0 25,0,0,0,0,0,0,0,0,0,0,0,0,0,0,25,
scooby_state_40df0f|51|0 10,2,0,1,2,1,1,0,0,1,2,1,2,1,1,25,
scooby_state_40df0f|40|0 9,2,0,1,1,1,1,1,1,2,2,0,0,1,3,25,
scooby_state_440959|37|2 25,0,0,0,0,0,0,0,0,0,0,0,0,0,0,25,
scooby_state_44a1c5|7|1 25,0,0,0,0,0,0,0,0,0,0,0,0,0,0,25,
scooby_state_40df0f|17|0 10,0,0,0,0,4,1,3,1,2,0,0,0,3,1,25,
scooby_state_4054c0|19|1 25,0,0,0,0,0,0,0,0,0,0,0,0,0,0,25,
scooby_state_40b380|14|1 25,0,0,0,0,0,0,0,0,0,0,0,0,0,0,25,
scooby_state_405505|20|1 25,0,0,0,0,0,0,0,0,0,0,0,0,0,0,25,
scooby_state_449dc0|55|2 25,0,0,0,0,0,0,0,0,0,0,0,0,0,0,25,
scooby_state_41e0ba|44|2 25,0,0,0,0,0,0,0,0,0,0,0,0,0,0,25,
scooby_state_40df0f|36|0 11,3,2,1,0,1,0,0,0,2,0,2,1,0,2,25,
scooby_state_40df0f|24|0 11,0,1,0,1,1,2,2,0,0,0,2,0,2,3,25,
scooby_state_41e0ba|11|3 25,0,0,0,0,0,0,0,0,0,0,0,0,0,0,25,
scooby_state_40df0f|62|0 17,1,0,0,0,0,0,0,2,0,1,0,0,1,3,25,
scooby_state_40df0f|38|0 11,0,2,2,1,0,0,0,2,0,2,1,2,1,0,24,
scooby_state_43a1c0|7|5 24,0,0,0,0,0,0,0,0,0,0,0,0,0,0,24,
scooby_state_457b53|50|7 4,2,1,2,2,0,2,2,2,2,2,0,0,1,2,24,
scooby_state_44a8c2|35|1 24,0,0,0,0,0,0,0,0,0,0,0,0,0,0,24,
scooby_state_43f48b|18|3 24,0,0,0,0,0,0,0,0,0,0,0,0,0,0,24,
scooby_state_43b070|1|0 24,0,0,0,0,0,0,0,0,0,0,0,0,0,0,24,
scooby_state_43ba01|40|1 23,0,0,0,0,0,0,0,0,1,0,0,0,0,0,24,
scooby_state_457b53|53|7 4,2,1,2,2,0,0,2,2,2,2,2,2,1,0,24,
scooby_state_41e0ba|47|4 24,0,0,0,0,0,0,0,0,0,0,0,0,0,0,24,
scooby_state_43a081|2|1 23,1,0,0,0,0,0,0,0,0,0,0,0,0,0,24,
scooby_state_440583|22|1 24,0,0,0,0,0,0,0,0,0,0,0,0,0,0,24,
scooby_state_4413c3|15|1 24,0,0,0,0,0,0,0,0,0,0,0,0,0,0,24,
scooby_state_40b3c1|15|1 22,2,0,0,0,0,0,0,0,0,0,0,0,0,0,24,
scooby_state_43d299|10|1 0,24,0,0,0,0,0,0,0,0,0,0,0,0,0,24,
scooby_state_4390f8|3|-4 24,0,0,0,0,0,0,0,0,0,0,0,0,0,0,24,
scooby_state_40df0f|27|0 13,2,1,1,1,0,0,0,2,1,2,0,0,0,1,24,
scooby_state_440e03|56|1 24,0,0,0,0,0,0,0,0,0,0,0,0,0,0,24,
scooby_state_440c41|49|1 24,0,0,0,0,0,0,0,0,0,0,0,0,0,0,24,
scooby_state_40df0f|39|0 19,1,1,0,0,0,1,1,0,0,0,0,1,0,0,24,
scooby_state_440f40|61|1 23,0,0,0,0,0,0,0,0,0,0,0,0,0,0,23,
scooby_state_43d265|9|1 23,0,0,0,0,0,0,0,0,0,0,0,0,0,0,23,
scooby_state_409105|4|4 23,0,0,0,0,0,0,0,0,0,0,0,0,0,0,23,
scooby_state_43e0b8|2|-2 23,0,0,0,0,0,0,0,0,0,0,0,0,0,0,23,
scooby_state_43e902|36|1 23,0,0,0,0,0,0,0,0,0,0,0,0,0,0,23,
scooby_state_40be43|57|1 22,1,0,0,0,0,0,0,0,0,0,0,0,0,0,23,
scooby_state_439050|1|1 23,0,0,0,0,0,0,0,0,0,0,0,0,0,0,23,
scooby_state_43f500|20|10 23,0,0,0,0,0,0,0,0,0,0,0,0,0,0,23,
scooby_state_41e0ba|14|2 23,0,0,0,0,0,0,0,0,0,0,0,0,0,0,23,
scooby_state_4080c0|3|-36 23,0,0,0,0,0,0,0,0,0,0,0,0,0,0,23,
scooby_state_4048c4|35|1 23,0,0,0,0,0,0,0,0,0,0,0,0,0,0,23,
scooby_state_406038|0|-1 23,0,0,0,0,0,0,0,0,0,0,0,0,0,0,23,
scooby_state_40b0bd|2|-35 23,0,0,0,0,0,0,0,0,0,0,0,0,0,0,23,
scooby_state_440751|29|1 23,0,0,0,0,0,0,0,0,0,0,0,0,0,0,23,
scooby_state_40df0f|19|0 13,1,0,0,0,2,1,1,1,0,2,0,0,0,2,23,
scooby_state_40a4c9|19|1 23,0,0,0,0,0,0,0,0,0,0,0,0,0,0,23,
scooby_state_457b53|2|0 10,2,0,0,0,0,0,1,6,0,0,0,2,0,2,23,
scooby_state_43e0b8|2|-6 23,0,0,0,0,0,0,0,0,0,0,0,0,0,0,23,
scooby_state_4080c0|3|1 23,0,0,0,0,0,0,0,0,0,0,0,0,0,0,23,
scooby_state_440906|36|-3 23,0,0,0,0,0,0,0,0,0,0,0,0,0,0,23,
scooby_state_40d140|5|1 21,0,1,0,0,0,1,0,0,0,0,0,0,0,0,23,
scooby_state_43c9bf|38|-3 23,0,0,0,0,0,0,0,0,0,0,0,0,0,0,23,
scooby_state_457b53|40|8 2,0,0,0,2,0,0,9,2,0,1,1,2,2,2,23,
scooby_state_407f40|61|1 22,0,0,0,0,0,0,0,0,0,0,0,0,0,0,22,
scooby_state_457b53|5|0 9,2,0,0,0,0,0,1,6,0,0,0,2,0,2,22,
scooby_state_41e0ba|2|0 22,0,0,0,0,0,0,0,0,0,0,0,0,0,0,22,
scooby_state_457b53|1|0 9,2,1,1,0,0,0,0,6,0,0,2,0,0,1,22,
scooby_state_457b53|57|7 4,2,2,2,2,0,2,2,2,2,2,0,0,0,0,22,
scooby_state_41e1c3|7|1 22,0,0,0,0,0,0,0,0,0,0,0,0,0,0,22,
scooby_state_43dfa8|62|1 22,0,0,0,0,0,0,0,0,0,0,0,0,0,0,22,
scooby_state_41e180|6|1 22,0,0,0,0,0,0,0,0,0,0,0,0,0,0,22,
scooby_state_44a241|9|1 22,0,0,0,0,0,0,0,0,0,0,0,0,0,0,22,
scooby_state_457b53|4|0 8,2,0,0,0,0,0,2,6,0,0,0,2,0,2,22,
scooby_state_439081|2|2 22,0,0,0,0,0,0,0,0,0,0,0,0,0,0,22,
scooby_state_43cfd0|63|1 22,0,0,0,0,0,0,0,0,0,0,0,0,0,0,22,
scooby_state_438c85|50|1 22,0,0,0,0,0,0,0,0,0,0,0,0,0,0,22,
scooby_state_41e0ba|57|4 22,0,0,0,0,0,0,0,0,0,0,0,0,0,0,22,
scooby_state_457b53|46|8 2,0,2,0,2,0,0,8,2,0,0,0,2,2,2,22,
scooby_state_40a0a0|2|-60 22,0,0,0,0,0,0,0,0,0,0,0,0,0,0,22,
scooby_state_438cc6|51|1 22,0,0,0,0,0,0,0,0,0,0,0,0,0,0,22,
scooby_state_43e20b|8|-54 22,0,0,0,0,0,0,0,0,0,0,0,0,0,0,22,
scooby_state_41e0ba|52|3 22,0,0,0,0,0,0,0,0,0,0,0,0,0,0,22,
scooby_state_40df0f|46|0 10,0,2,1,1,1,0,1,1,2,0,0,2,0,1,22,
scooby_state_40df0f|12|0 10,0,2,0,2,1,0,1,0,0,2,1,1,0,2,22,
scooby_state_457b53|17|7 4,1,0,2,2,0,1,2,2,2,2,0,0,1,2,21,
scooby_state_40df0f|60|0 12,0,0,0,3,0,0,0,1,0,0,1,0,2,2,21,
scooby_state_438fc3|63|1 4,17,0,0,0,0,0,0,0,0,0,0,0,0,0,21,
scooby_state_40ba02|40|1 12,9,0,0,0,0,0,0,0,0,0,0,0,0,0,21,
scooby_state_40a500|20|1 21,0,0,0,0,0,0,0,0,0,0,0,0,0,0,21,
scooby_state_44aa10|40|0 21,0,0,0,0,0,0,0,0,0,0,0,0,0,0,21,
scooby_state_41e0ba|43|3 21,0,0,0,0,0,0,0,0,0,0,0,0,0,0,21,
scooby_state_457b53|22|8 2,0,1,0,2,0,0,8,2,0,0,0,2,2,2,21,
scooby_state_440c41|49|20 21,0,0,0,0,0,0,0,0,0,0,0,0,0,0,21,
scooby_state_43cea0|58|2 21,0,0,0,0,0,0,0,0,0,0,0,0,0,0,21,
scooby_state_40b546|21|1 21,0,0,0,0,0,0,0,0,0,0,0,0,0,0,21,
scooby_state_41e0ba|21|4 21,0,0,0,0,0,0,0,0,0,0,0,0,0,0,21,
scooby_state_441740|29|1 21,0,0,0,0,0,0,0,0,0,0,0,0,0,0,21,
scooby_state_40df0f|0|0 9,1,1,0,2,1,0,1,1,0,1,0,1,0,3,21,
scooby_state_41e0ba|24|3 20,0,0,0,0,0,0,0,0,0,1,0,0,0,0,21,
scooby_state_43fe84|58|-5 10,11,0,0,0,0,0,0,0,0,0,0,0,0,0,21,
scooby_state_40df0f|28|0 10,1,1,1,1,1,0,1,0,0,1,2,0,0,2,21,
scooby_state_41e142|5|1 21,0,0,0,0,0,0,0,0,0,0,0,0,0,0,21,
scooby_state_43d080|2|-50 21,0,0,0,0,0,0,0,0,0,0,0,0,0,0,21,
scooby_state_409105|4|-11 8,2,1,1,0,5,1,2,1,0,0,0,0,0,0,21,
scooby_state_40b182|6|1 21,0,0,0,0,0,0,0,0,0,0,0,0,0,0,21,
scooby_state_439000|0|-8 21,0,0,0,0,0,0,0,0,0,0,0,0,0,0,21,
scooby_state_41e0ba|18|4 21,0,0,0,0,0,0,0,0,0,0,0,0,0,0,21,
scooby_state_40d182|6|1 21,0,0,0,0,0,0,0,0,0,0,0,0,0,0,21,
scooby_state_43acc2|51|1 20,0,1,0,0,0,0,0,0,0,0,0,0,0,0,21,
scooby_state_41e0ba|18|3 21,0,0,0,0,0,0,0,0,0,0,0,0,0,0,21,
scooby_state_40b9c5|39|1 21,0,0,0,0,0,0,0,0,0,0,0,0,0,0,21,
scooby_state_4071c9|7|1 21,0,0,0,0,0,0,0,0,0,0,0,0,0,0,21,
scooby_state_44013b|4|1 21,0,0,0,0,0,0,0,0,0,0,0,0,0,0,21,
scooby_state_43cc40|49|1 21,0,0,0,0,0,0,0,0,0,0,0,0,0,0,21,
scooby_state_457b53|29|7 4,2,1,2,1,0,0,2,2,2,2,2,0,1,0,21,
scooby_state_4400d7|3|1 21,0,0,0,0,0,0,0,0,0,0,0,0,0,0,21,
scooby_state_406941|37|1 21,0,0,0,0,0,0,0,0,0,0,0,0,0,0,21,
scooby_state_40df0f|43|0 16,0,0,0,0,1,0,0,1,1,0,0,0,0,1,20,
scooby_state_43c243|9|1 20,0,0,0,0,0,0,0,0,0,0,0,0,0,0,20,
scooby_state_41e0ba|11|2 20,0,0,0,0,0,0,0,0,0,0,0,0,0,0,20,
scooby_state_40df0f|20|0 9,0,1,0,1,0,1,1,3,0,0,0,0,2,2,20,
scooby_state_40b602|24|1 20,0,0,0,0,0,0,0,0,0,0,0,0,0,0,20,
scooby_state_439109|4|-58 19,0,0,0,0,0,0,0,0,0,1,0,0,0,0,20,
scooby_state_440dec|55|-6 20,0,0,0,0,0,0,0,0,0,0,0,0,0,0,20,
scooby_state_41e0ba|16|2 20,0,0,0,0,0,0,0,0,0,0,0,0,0,0,20,
scooby_state_44a703|28|1 20,0,0,0,0,0,0,0,0,0,0,0,0,0,0,20,
scooby_state_41e0ba|12|4 20,0,0,0,0,0,0,0,0,0,0,0,0,0,0,20,
scooby_state_43f440|17|-1 20,0,0,0,0,0,0,0,0,0,0,0,0,0,0,20,
scooby_state_41e0ba|37|2 20,0,0,0,0,0,0,0,0,0,0,0,0,0,0,20,
scooby_state_41e0ba|42|3 20,0,0,0,0,0,0,0,0,0,0,0,0,0,0,20,
scooby_state_43e99b|38|36 20,0,0,0,0,0,0,0,0,0,0,0,0,0,0,20,
scooby_state_457582|22|1 20,0,0,0,0,0,0,0,0,0,0,0,0,0,0,20,
scooby_state_41e0ba|34|3 20,0,0,0,0,0,0,0,0,0,0,0,0,0,0,20,
scooby_state_406981|38|1 20,0,0,0,0,0,0,0,0,0,0,0,0,0,0,20,
scooby_state_457cc1|51|1 17,1,0,0,0,0,0,1,0,1,0,0,0,0,0,20,
scooby_state_40df0f|9|0 9,0,2,1,1,0,1,1,1,1,0,0,1,1,1,20,
scooby_state_407186|6|2 20,0,0,0,0,0,0,0,0,0,0,0,0,0,0,20,
scooby_state_40e049|46|0 5,6,0,2,0,0,0,1,0,2,0,1,0,2,1,20,
scooby_state_43d505|20|-32 20,0,0,0,0,0,0,0,0,0,0,0,0,0,0,20,
scooby_state_457b53|19|8 1,0,1,0,2,2,0,6,1,0,1,0,2,2,2,20,
scooby_state_4069c1|39|1 20,0,0,0,0,0,0,0,0,0,0,0,0,0,0,20,
scooby_state_43f341|13|1 20,0,0,0,0,0,0,0,0,0,0,0,0,0,0,20,
scooby_state_439000|0|-3 20,0,0,0,0,0,0,0,0,0,0,0,0,0,0,20,
scooby_state_43a741|29|1 20,0,0,0,0,0,0,0,0,0,0,0,0,0,0,20,
scooby_state_439440|17|-46 0,20,0,0,0,0,0,0,0,0,0,0,0,0,0,20,
scooby_state_40e080|2|0 20,0,0,0,0,0,0,0,0,0,0,0,0,0,0,20,
scooby_state_43d000|0|-2 20,0,0,0,0,0,0,0,0,0,0,0,0,0,0,20,
scooby_state_43e704|28|1 19,0,0,0,0,1,0,0,0,0,0,0,0,0,0,20,
scooby_state_40c942|37|-2 20,0,0,0,0,0,0,0,0,0,0,0,0,0,0,20,
scooby_state_40e080|2|-2 20,0,0,0,0,0,0,0,0,0,0,0,0,0,0,20,
scooby_state_43fe42|57|1 20,0,0,0,0,0,0,0,0,0,0,0,0,0,0,20,
scooby_state_41e0ba|47|3 20,0,0,0,0,0,0,0,0,0,0,0,0,0,0,20,
scooby_state_40df0f|47|0 11,0,1,1,2,0,0,1,0,1,0,0,2,0,1,20,
scooby_state_41e0f6|17|1 0,20,0,0,0,0,0,0,0,0,0,0,0,0,0,20,
scooby_state_41a839|53|0 20,0,0,0,0,0,0,0,0,0,0,0,0,0,0,20,
scooby_state_41e0ba|34|2 19,0,0,0,0,0,0,0,0,0,0,0,0,0,0,19,
scooby_state_41e0ba|15|4 18,0,0,0,0,0,0,0,0,0,0,0,0,1,0,19,
scooby_state_43921e|8|5 19,0,0,0,0,0,0,0,0,0,0,0,0,0,0,19,
scooby_state_43f284|10|1 19,0,0,0,0,0,0,0,0,0,0,0,0,0,0,19,
scooby_state_4096c6|27|1 9,10,0,0,0,0,0,0,0,0,0,0,0,0,0,19,
scooby_state_4575f2|61|8 3,5,1,0,0,2,1,0,0,1,2,2,0,0,2,19,
scooby_state_41e0f1|48|-2 18,0,0,0,0,1,0,0,0,0,0,0,0,0,0,19,
scooby_state_457b53|13|8 2,0,2,0,2,0,0,5,1,0,1,0,2,2,2,19,
scooby_state_43b9d8|39|37 19,0,0,0,0,0,0,0,0,0,0,0,0,0,0,19,
scooby_state_43ff42|61|44 19,0,0,0,0,0,0,0,0,0,0,0,0,0,0,19,
scooby_state_4408c3|35|1 19,0,0,0,0,0,0,0,0,0,0,0,0,0,0,19,
scooby_state_41e0ba|24|2 19,0,0,0,0,0,0,0,0,0,0,0,0,0,0,19,
scooby_state_41e0ba|26|3 19,0,0,0,0,0,0,0,0,0,0,0,0,0,0,19,
scooby_state_43d000|0|-61 19,0,0,0,0,0,0,0,0,0,0,0,0,0,0,19,
scooby_state_40df0f|15|0 9,0,1,0,0,0,2,2,1,1,1,1,0,1,0,19,
scooby_state_4070a0|2|-37 19,0,0,0,0,0,0,0,0,0,0,0,0,0,0,19,
scooby_state_44a6c0|27|21 19,0,0,0,0,0,0,0,0,0,0,0,0,0,0,19,
scooby_state_40c8f5|16|-1 3,2,0,0,1,1,0,0,1,0,1,3,5,1,1,19,
scooby_state_441070|1|0 19,0,0,0,0,0,0,0,0,0,0,0,0,0,0,19,
scooby_state_40a586|22|1 18,0,1,0,0,0,0,0,0,0,0,0,0,0,0,19,
scooby_state_43f243|9|1 19,0,0,0,0,0,0,0,0,0,0,0,0,0,0,19,
scooby_state_408960|37|2 19,0,0,0,0,0,0,0,0,0,0,0,0,0,0,19,
scooby_state_40bf44|61|1 19,0,0,0,0,0,0,0,0,0,0,0,0,0,0,19,
scooby_state_41e0ba|59|3 19,0,0,0,0,0,0,0,0,0,0,0,0,0,0,19,
scooby_state_440442|17|-44 19,0,0,0,0,0,0,0,0,0,0,0,0,0,0,19,
scooby_state_40df0f|32|0 8,3,0,0,1,1,1,0,0,1,1,0,0,0,3,19,
scooby_state_40e080|2|1 13,6,0,0,0,0,0,0,0,0,0,0,0,0,0,19,
scooby_state_439081|2|0 19,0,0,0,0,0,0,0,0,0,0,0,0,0,0,19,
scooby_state_41b180|6|1 19,0,0,0,0,0,0,0,0,0,0,0,0,0,0,19,
scooby_state_43ee80|58|1 19,0,0,0,0,0,0,0,0,0,0,0,0,0,0,19,
scooby_state_43f1e0|7|0 19,0,0,0,0,0,0,0,0,0,0,0,0,0,0,19,
scooby_state_405f42|61|54 19,0,0,0,0,0,0,0,0,0,0,0,0,0,0,19,
scooby_state_41e0ba|55|2 19,0,0,0,0,0,0,0,0,0,0,0,0,0,0,19,
scooby_state_43c280|10|1 15,0,0,0,0,0,1,1,0,0,0,0,1,1,0,19,
scooby_state_40df0f|59|0 9,1,1,0,2,1,0,1,0,1,1,1,0,0,1,19,
scooby_state_457b53|34|8 2,0,0,0,2,0,0,8,2,0,0,0,2,2,1,19,
scooby_state_41e0ba|3|2 19,0,0,0,0,0,0,0,0,0,0,0,0,0,0,19,
scooby_state_4575f2|62|7 2,1,1,4,0,0,3,0,3,1,0,0,1,2,1,19,
scooby_state_41e0ba|39|2 18,0,0,0,0,0,0,0,0,0,0,0,0,0,0,18,
scooby_state_456344|13|1 18,0,0,0,0,0,0,0,0,0,0,0,0,0,0,18,
scooby_state_40d0d0|3|-59 18,0,0,0,0,0,0,0,0,0,0,0,0,0,0,18,
scooby_state_41e0ba|19|2 18,0,0,0,0,0,0,0,0,0,0,0,0,0,0,18,
scooby_state_40e049|1|-6 12,0,0,0,1,2,0,1,0,0,0,0,0,2,0,18,
scooby_state_4405c1|23|1 18,0,0,0,0,0,0,0,0,0,0,0,0,0,0,18,
scooby_state_43a945|37|-26 18,0,0,0,0,0,0,0,0,0,0,0,0,0,0,18,
scooby_state_43f341|13|-7 18,0,0,0,0,0,0,0,0,0,0,0,0,0,0,18,
scooby_state_41e0ba|60|2 18,0,0,0,0,0,0,0,0,0,0,0,0,0,0,18,
scooby_state_41e0ba|8|3 18,0,0,0,0,0,0,0,0,0,0,0,0,0,0,18,
scooby_state_41e0ba|21|2 18,0,0,0,0,0,0,0,0,0,0,0,0,0,0,18,
scooby_state_41e0f1|14|-2 18,0,0,0,0,0,0,0,0,0,0,0,0,0,0,18,
scooby_state_43d299|10|2 0,18,0,0,0,0,0,0,0,0,0,0,0,0,0,18,
scooby_state_41e0ba|27|4 18,0,0,0,0,0,0,0,0,0,0,0,0,0,0,18,
scooby_state_41e0ba|49|3 18,0,0,0,0,0,0,0,0,0,0,0,0,0,0,18,
scooby_state_41e0f1|26|-2 18,0,0,0,0,0,0,0,0,0,0,0,0,0,0,18,
scooby_state_40df0f|50|0 11,0,0,1,1,0,1,0,0,1,0,0,0,3,0,18,
scooby_state_406038|0|-28 18,0,0,0,0,0,0,0,0,0,0,0,0,0,0,18,
scooby_state_41e0ba|62|3 18,0,0,0,0,0,0,0,0,0,0,0,0,0,0,18,
scooby_state_457602|24|1 18,0,0,0,0,0,0,0,0,0,0,0,0,0,0,18,
scooby_state_40df0f|21|0 7,0,0,1,2,0,0,1,0,0,0,3,0,2,2,18,
scooby_state_457b53|32|7 4,2,0,2,2,0,0,2,2,2,0,0,0,0,2,18,
scooby_state_41e0f6|14|1 1,17,0,0,0,0,0,0,0,0,0,0,0,0,0,18,
scooby_state_40df0f|8|0 7,2,1,0,2,1,2,0,0,1,0,1,0,1,0,18,
scooby_state_41e0ba|19|3 17,0,1,0,0,0,0,0,0,0,0,0,0,0,0,18,
scooby_state_43c8c3|35|1 1,0,0,0,1,1,1,1,4,0,2,5,1,0,1,18,
scooby_state_4061c2|7|1 17,1,0,0,0,0,0,0,0,0,0,0,0,0,0,18,
scooby_state_40e049|1|0 9,2,1,0,0,0,0,0,1,2,3,0,0,0,0,18,
scooby_state_438d03|52|1 18,0,0,0,0,0,0,0,0,0,0,0,0,0,0,18,
scooby_state_4390c6|52|1 18,0,0,0,0,0,0,0,0,0,0,0,0,0,0,18,
scooby_state_41e0a7|50|3 3,14,0,1,0,0,0,0,0,0,0,0,0,0,0,18,
scooby_state_41e0ba|9|3 18,0,0,0,0,0,0,0,0,0,0,0,0,0,0,18,
scooby_state_41e287|10|3 18,0,0,0,0,0,0,0,0,0,0,0,0,0,0,18,
scooby_state_41e0ba|46|3 18,0,0,0,0,0,0,0,0,0,0,0,0,0,0,18,
scooby_state_405550|21|1 18,0,0,0,0,0,0,0,0,0,0,0,0,0,0,18,
scooby_state_41e203|8|-2 18,0,0,0,0,0,0,0,0,0,0,0,0,0,0,18,
scooby_state_43a3e8|15|8 18,0,0,0,0,0,0,0,0,0,0,0,0,0,0,18,
scooby_state_4575f2|26|7 2,1,1,2,1,2,0,0,1,2,0,0,2,2,2,18,
scooby_state_41ace0|51|-10 11,6,0,0,0,0,0,0,0,0,0,0,0,0,0,17,
scooby_state_41e0f1|62|2 17,0,0,0,0,0,0,0,0,0,0,0,0,0,0,17,
scooby_state_439f90|62|-1 17,0,0,0,0,0,0,0,0,0,0,0,0,0,0,17,
scooby_state_440185|6|1 17,0,0,0,0,0,0,0,0,0,0,0,0,0,0,17,
scooby_state_40b086|2|-5 17,0,0,0,0,0,0,0,0,0,0,0,0,0,0,17,
scooby_state_40e049|1|-1 14,0,0,0,2,0,1,0,0,0,0,0,0,0,0,17,
scooby_state_41e0f1|61|-1 17,0,0,0,0,0,0,0,0,0,0,0,0,0,0,17,
scooby_state_43e340|13|1 17,0,0,0,0,0,0,0,0,0,0,0,0,0,0,17,
scooby_state_4579bc|38|-7 17,0,0,0,0,0,0,0,0,0,0,0,0,0,0,17,
scooby_state_408960|37|35 17,0,0,0,0,0,0,0,0,0,0,0,0,0,0,17,
scooby_state_41e0f1|13|-2 17,0,0,0,0,0,0,0,0,0,0,0,0,0,0,17,
scooby_state_457b53|11|7 4,2,1,1,2,0,1,2,2,1,0,0,1,0,0,17,
scooby_state_43aa02|40|1 17,0,0,0,0,0,0,0,0,0,0,0,0,0,0,17,
scooby_state_41e0ba|48|4 17,0,0,0,0,0,0,0,0,0,0,0,0,0,0,17,
scooby_state_439681|26|24 17,0,0,0,0,0,0,0,0,0,0,0,0,0,0,17,
scooby_state_40a9c1|39|1 17,0,0,0,0,0,0,0,0,0,0,0,0,0,0,17,
scooby_state_40a0a0|2|-35 17,0,0,0,0,0,0,0,0,0,0,0,0,0,0,17,
scooby_state_406a0b|40|1 17,0,0,0,0,0,0,0,0,0,0,0,0,0,0,17,
scooby_state_41e0ba|9|4 16,1,0,0,0,0,0,0,0,0,0,0,0,0,0,17,
scooby_state_4575c8|23|1 17,0,0,0,0,0,0,0,0,0,0,0,0,0,0,17,
scooby_state_41e0ba|50|3 17,0,0,0,0,0,0,0,0,0,0,0,0,0,0,17,
scooby_state_440140|5|1 17,0,0,0,0,0,0,0,0,0,0,0,0,0,0,17,
scooby_state_4575f2|29|7 2,0,1,2,0,2,0,0,2,2,0,0,2,2,2,17,
scooby_state_41e249|9|1 17,0,0,0,0,0,0,0,0,0,0,0,0,0,0,17,
scooby_state_41e0ba|12|3 17,0,0,0,0,0,0,0,0,0,0,0,0,0,0,17,
scooby_state_405f03|60|53 16,1,0,0,0,0,0,0,0,0,0,0,0,0,0,17,
scooby_state_404e04|56|1 17,0,0,0,0,0,0,0,0,0,0,0,0,0,0,17,
scooby_state_4390c2|3|1 17,0,0,0,0,0,0,0,0,0,0,0,0,0,0,17,
scooby_state_40df18|8|0 3,0,2,0,1,1,2,0,2,1,0,3,0,0,2,17,
scooby_state_43e4c4|19|6 17,0,0,0,0,0,0,0,0,0,0,0,0,0,0,17,
scooby_state_457b53|25|8 2,0,0,0,1,0,0,8,0,0,0,0,2,2,2,17,
scooby_state_41e0ba|44|3 16,0,0,0,0,0,0,0,0,0,0,1,0,0,0,17,
scooby_state_43e140|5|1 17,0,0,0,0,0,0,0,0,0,0,0,0,0,0,17,
scooby_state_40df0f|23|0 8,1,1,0,0,0,0,0,0,1,1,1,1,1,2,17,
scooby_state_40b984|38|1 17,0,0,0,0,0,0,0,0,0,0,0,0,0,0,17,
scooby_state_43df41|61|1 17,0,0,0,0,0,0,0,0,0,0,0,0,0,0,17,
scooby_state_456320|12|0 17,0,0,0,0,0,0,0,0,0,0,0,0,0,0,17,
scooby_state_4575f2|13|7 2,2,0,2,0,2,1,1,2,1,0,0,2,0,2,17,
scooby_state_41e0f1|45|-2 17,0,0,0,0,0,0,0,0,0,0,0,0,0,0,17,
scooby_state_41e0ba|29|4 17,0,0,0,0,0,0,0,0,0,0,0,0,0,0,17,
scooby_state_40df0f|63|0 6,0,0,0,1,0,3,1,0,1,0,1,2,1,1,17,
scooby_state_40c942|37|2 17,0,0,0,0,0,0,0,0,0,0,0,0,0,0,17,
scooby_state_41e0f1|46|-2 17,0,0,0,0,0,0,0,0,0,0,0,0,0,0,17,
scooby_state_43f1a7|6|2 17,0,0,0,0,0,0,0,0,0,0,0,0,0,0,17,
scooby_state_457b53|44|7 2,2,1,2,2,0,0,2,2,1,0,2,0,1,0,17,
scooby_state_43a0b0|2|2 2,15,0,0,0,0,0,0,0,0,0,0,0,0,0,17,
scooby_state_43e8c0|35|1 17,0,0,0,0,0,0,0,0,0,0,0,0,0,0,17,
scooby_state_457b23|44|15 17,0,0,0,0,0,0,0,0,0,0,0,0,0,0,17,
scooby_state_43f1e0|7|-54 17,0,0,0,0,0,0,0,0,0,0,0,0,0,0,17,
scooby_state_41ad44|53|1 17,0,0,0,0,0,0,0,0,0,0,0,0,0,0,17,
scooby_state_457710|28|0 16,0,0,0,0,0,0,0,0,0,0,0,0,0,0,16,
scooby_state_41e0f6|53|1 0,16,0,0,0,0,0,0,0,0,0,0,0,0,0,16,
scooby_state_43f130|4|2 16,0,0,0,0,0,0,0,0,0,0,0,0,0,0,16,
scooby_state_40df0f|5|0 10,0,1,0,0,1,1,0,0,0,0,1,1,0,1,16,
scooby_state_40af44|61|55 16,0,0,0,0,0,0,0,0,0,0,0,0,0,0,16,
scooby_state_4095b3|4|-12 16,0,0,0,0,0,0,0,0,0,0,0,0,0,0,16,
scooby_state_44a780|30|-5 16,0,0,0,0,0,0,0,0,0,0,0,0,0,0,16,
scooby_state_4575f2|58|8 4,8,0,0,0,1,0,0,0,0,1,2,0,0,0,16,
scooby_state_41e0ba|57|2 16,0,0,0,0,0,0,0,0,0,0,0,0,0,0,16,
scooby_state_40afa9|62|-1 16,0,0,0,0,0,0,0,0,0,0,0,0,0,0,16,
scooby_state_404c83|50|1 16,0,0,0,0,0,0,0,0,0,0,0,0,0,0,16,
scooby_state_43ea33|40|2 16,0,0,0,0,0,0,0,0,0,0,0,0,0,0,16,
scooby_state_406440|17|2 16,0,0,0,0,0,0,0,0,0,0,0,0,0,0,16,
scooby_state_43b118|4|1 16,0,0,0,0,0,0,0,0,0,0,0,0,0,0,16,
scooby_state_40e049|53|0 4,6,0,2,0,0,0,0,0,2,0,0,0,2,0,16,
scooby_state_439f90|62|54 16,0,0,0,0,0,0,0,0,0,0,0,0,0,0,16,
scooby_state_41e0ba|26|2 16,0,0,0,0,0,0,0,0,0,0,0,0,0,0,16,
scooby_state_41ad02|52|1 16,0,0,0,0,0,0,0,0,0,0,0,0,0,0,16,
scooby_state_41e0f1|10|-1 16,0,0,0,0,0,0,0,0,0,0,0,0,0,0,16,
scooby_state_457b53|45|1 16,0,0,0,0,0,0,0,0,0,0,0,0,0,0,16,
scooby_state_457b53|14|7 4,2,1,2,1,0,0,2,2,1,0,0,0,1,0,16,
scooby_state_43f060|1|-60 16,0,0,0,0,0,0,0,0,0,0,0,0,0,0,16,
scooby_state_43a0b0|2|-37 16,0,0,0,0,0,0,0,0,0,0,0,0,0,0,16,
scooby_state_405450|17|-45 16,0,0,0,0,0,0,0,0,0,0,0,0,0,0,16,
scooby_state_41e0ba|51|3 16,0,0,0,0,0,0,0,0,0,0,0,0,0,0,16,
scooby_state_41e0ba|32|2 16,0,0,0,0,0,0,0,0,0,0,0,0,0,0,16,
scooby_state_43e0b8|2|0 16,0,0,0,0,0,0,0,0,0,0,0,0,0,0,16,
scooby_state_457b53|37|8 2,0,0,0,2,0,0,5,2,0,0,0,2,2,1,16,
scooby_state_43f1e0|7|5 16,0,0,0,0,0,0,0,0,0,0,0,0,0,0,16,
scooby_state_43cdc0|55|-6 16,0,0,0,0,0,0,0,0,0,0,0,0,0,0,16,
scooby_state_41e0f6|19|1 0,16,0,0,0,0,0,0,0,0,0,0,0,0,0,16,
scooby_state_43a6c0|27|1 16,0,0,0,0,0,0,0,0,0,0,0,0,0,0,16,
scooby_state_41e0ba|48|3 16,0,0,0,0,0,0,0,0,0,0,0,0,0,0,16,
scooby_state_457742|29|1 16,0,0,0,0,0,0,0,0,0,0,0,0,0,0,16,
scooby_state_404f20|60|-1 16,0,0,0,0,0,0,0,0,0,0,0,0,0,0,16,
scooby_state_41e0f1|19|-2 16,0,0,0,0,0,0,0,0,0,0,0,0,0,0,16,
scooby_state_40a0a0|2|-36 16,0,0,0,0,0,0,0,0,0,0,0,0,0,0,16,
scooby_state_40df18|22|0 6,1,0,0,1,0,2,0,1,0,0,0,1,0,4,16,
scooby_state_4575f2|62|15 8,0,0,0,0,2,2,2,2,0,0,0,0,0,0,16,
scooby_state_457b53|10|8 2,0,0,0,1,0,0,6,1,0,0,0,2,2,2,16,
scooby_state_409382|14|1 16,0,0,0,0,0,0,0,0,0,0,0,0,0,0,16,
scooby_state_449d81|54|1 16,0,0,0,0,0,0,0,0,0,0,0,0,0,0,16,
scooby_state_440082|2|1 16,0,0,0,0,0,0,0,0,0,0,0,0,0,0,16,
scooby_state_457b53|16|0 6,0,0,0,0,0,0,2,4,0,0,0,2,2,0,16,
scooby_state_43d600|24|1 16,0,0,0,0,0,0,0,0,0,0,0,0,0,0,16,
scooby_state_41e0ba|6|3 16,0,0,0,0,0,0,0,0,0,0,0,0,0,0,16,
scooby_state_440200|8|-2 16,0,0,0,0,0,0,0,0,0,0,0,0,0,0,16,
scooby_state_4070a0|2|-47 16,0,0,0,0,0,0,0,0,0,0,0,0,0,0,16,
scooby_state_41e0ba|20|4 16,0,0,0,0,0,0,0,0,0,0,0,0,0,0,16,
scooby_state_43d328|12|-12 16,0,0,0,0,0,0,0,0,0,0,0,0,0,0,16,
scooby_state_41e0ba|24|4 16,0,0,0,0,0,0,0,0,0,0,0,0,0,0,16,
scooby_state_41b036|0|0 16,0,0,0,0,0,0,0,0,0,0,0,0,0,0,16,
scooby_state_408f68|61|12 16,0,0,0,0,0,0,0,0,0,0,0,0,0,0,16,
scooby_state_40df0f|49|0 8,1,1,1,3,0,0,0,0,0,0,1,0,1,0,16,
scooby_state_41e0ba|39|4 16,0,0,0,0,0,0,0,0,0,0,0,0,0,0,16,
scooby_state_40bcc1|51|2 16,0,0,0,0,0,0,0,0,0,0,0,0,0,0,16,
scooby_state_407186|6|4 15,0,1,0,0,0,0,0,0,0,0,0,0,0,0,16,
scooby_state_41e0ba|13|4 16,0,0,0,0,0,0,0,0,0,0,0,0,0,0,16,
scooby_state_41e0ba|23|3 16,0,0,0,0,0,0,0,0,0,0,0,0,0,0,16,
scooby_state_43b081|2|-34 15,1,0,0,0,0,0,0,0,0,0,0,0,0,0,16,
scooby_state_43f284|10|2 1,15,0,0,0,0,0,0,0,0,0,0,0,0,0,16,
scooby_state_41e0f6|63|1 1,15,0,0,0,0,0,0,0,0,0,0,0,0,0,16,
scooby_state_41e0ba|4|3 16,0,0,0,0,0,0,0,0,0,0,0,0,0,0,16,
scooby_state_457ca5|50|24 16,0,0,0,0,0,0,0,0,0,0,0,0,0,0,16,
scooby_state_41e0f1|41|-2 16,0,0,0,0,0,0,0,0,0,0,0,0,0,0,16,
scooby_state_40c8f5|12|-1 3,1,0,0,2,0,0,0,1,0,1,1,5,1,1,16,
scooby_state_409040|1|-3 6,10,0,0,0,0,0,0,0,0,0,0,0,0,0,16,
scooby_state_40df18|9|0 6,1,0,1,1,1,0,1,1,0,1,1,0,1,1,16,
scooby_state_41e0f1|25|-2 16,0,0,0,0,0,0,0,0,0,0,0,0,0,0,16,
scooby_state_43d505|20|1 15,0,0,0,0,0,0,0,0,0,0,0,0,0,0,15,
scooby_state_41e0a0|2|-1 15,0,0,0,0,0,0,0,0,0,0,0,0,0,0,15,
scooby_state_41e0ba|39|3 15,0,0,0,0,0,0,0,0,0,0,0,0,0,0,15,
scooby_state_440284|10|1 14,1,0,0,0,0,0,0,0,0,0,0,0,0,0,15,
scooby_state_41e0ba|37|3 15,0,0,0,0,0,0,0,0,0,0,0,0,0,0,15,
scooby_state_43ad40|53|1 13,0,1,0,0,0,0,0,0,0,0,0,1,0,0,15,
scooby_state_40e200|8|1 15,0,0,0,0,0,0,0,0,0,0,0,0,0,0,15,
scooby_state_41e0ba|5|3 15,0,0,0,0,0,0,0,0,0,0,0,0,0,0,15,
scooby_state_43e380|14|1 15,0,0,0,0,0,0,0,0,0,0,0,0,0,0,15,
scooby_state_439f90|62|62 14,0,0,0,1,0,0,0,0,0,0,0,0,0,0,15,
scooby_state_41e0f1|9|-2 15,0,0,0,0,0,0,0,0,0,0,0,0,0,0,15,
scooby_state_40a440|17|2 15,0,0,0,0,0,0,0,0,0,0,0,0,0,0,15,
scooby_state_41e0ba|23|4 15,0,0,0,0,0,0,0,0,0,0,0,0,0,0,15,
scooby_state_404c42|49|1 15,0,0,0,0,0,0,0,0,0,0,0,0,0,0,15,
scooby_state_457bc2|47|1 15,0,0,0,0,0,0,0,0,0,0,0,0,0,0,15,
scooby_state_40a785|30|1 14,0,0,0,0,0,1,0,0,0,0,0,0,0,0,15,
scooby_state_43e631|24|1 0,15,0,0,0,0,0,0,0,0,0,0,0,0,0,15,
scooby_state_4059c3|39|2 14,0,1,0,0,0,0,0,0,0,0,0,0,0,0,15,
scooby_state_41e0ba|16|4 15,0,0,0,0,0,0,0,0,0,0,0,0,0,0,15,
scooby_state_43b7d1|31|-9 15,0,0,0,0,0,0,0,0,0,0,0,0,0,0,15,
scooby_state_449f20|60|3 15,0,0,0,0,0,0,0,0,0,0,0,0,0,0,15,
scooby_state_457b53|48|7 2,1,1,1,1,1,1,1,1,1,1,1,1,0,1,15,
scooby_state_43cfd0|63|0 10,4,0,0,0,1,0,0,0,0,0,0,0,0,0,15,
scooby_state_41e0e0|3|-11 15,0,0,0,0,0,0,0,0,0,0,0,0,0,0,15,
scooby_state_43d080|2|-18 15,0,0,0,0,0,0,0,0,0,0,0,0,0,0,15,
scooby_state_41e0ba|47|2 15,0,0,0,0,0,0,0,0,0,0,0,0,0,0,15,
scooby_state_4575fb|18|1 15,0,0,0,0,0,0,0,0,0,0,0,0,0,0,15,
scooby_state_439041|1|1 15,0,0,0,0,0,0,0,0,0,0,0,0,0,0,15,
scooby_state_457b53|38|7 4,2,1,2,0,0,0,2,1,2,0,0,0,1,0,15,
scooby_state_440940|37|1 14,1,0,0,0,0,0,0,0,0,0,0,0,0,0,15,
scooby_state_4575f2|56|7 2,1,1,2,0,2,1,0,2,2,0,0,0,0,2,15,
scooby_state_43d5e8|23|13 15,0,0,0,0,0,0,0,0,0,0,0,0,0,0,15,
scooby_state_43948c|48|1 13,2,0,0,0,0,0,0,0,0,0,0,0,0,0,15,
scooby_state_43a381|14|1 15,0,0,0,0,0,0,0,0,0,0,0,0,0,0,15,
scooby_state_457570|21|-26 15,0,0,0,0,0,0,0,0,0,0,0,0,0,0,15,
scooby_state_41e3af|14|0 9,0,0,0,0,0,0,4,1,0,0,0,1,0,0,15,
scooby_state_407c03|48|1 15,0,0,0,0,0,0,0,0,0,0,0,0,0,0,15,
scooby_state_41e0f1|18|-2 15,0,0,0,0,0,0,0,0,0,0,0,0,0,0,15,
scooby_state_43e140|5|-2 15,0,0,0,0,0,0,0,0,0,0,0,0,0,0,15,
scooby_state_407742|29|1 5,10,0,0,0,0,0,0,0,0,0,0,0,0,0,15,
scooby_state_457bb0|46|7 1,0,0,0,0,1,1,0,1,0,1,5,1,2,2,15,
scooby_state_40b400|16|1 15,0,0,0,0,0,0,0,0,0,0,0,0,0,0,15,
scooby_state_40a943|37|31 15,0,0,0,0,0,0,0,0,0,0,0,0,0,0,15,
scooby_state_40e12a|4|-3 15,0,0,0,0,0,0,0,0,0,0,0,0,0,0,15,
scooby_state_40df18|40|0 6,1,0,0,1,1,1,2,1,1,0,0,0,0,1,15,
scooby_state_457b53|26|7 4,2,1,1,0,0,0,2,2,1,0,0,0,0,2,15,
scooby_state_41e0ba|41|3 15,0,0,0,0,0,0,0,0,0,0,0,0,0,0,15,
scooby_state_43e041|1|1 15,0,0,0,0,0,0,0,0,0,0,0,0,0,0,15,
scooby_state_4389b0|38|0 11,4,0,0,0,0,0,0,0,0,0,0,0,0,0,15,
scooby_state_4389b0|38|-24 15,0,0,0,0,0,0,0,0,0,0,0,0,0,0,15,
scooby_state_439109|4|-59 15,0,0,0,0,0,0,0,0,0,0,0,0,0,0,15,
scooby_state_44074a|29|1 15,0,0,0,0,0,0,0,0,0,0,0,0,0,0,15,
scooby_state_4394d7|49|1 15,0,0,0,0,0,0,0,0,0,0,0,0,0,0,15,
scooby_state_40def1|24|0 15,0,0,0,0,0,0,0,0,0,0,0,0,0,0,15,
scooby_state_4060d8|3|3 8,5,0,1,0,0,0,0,1,0,0,0,0,0,0,15,
scooby_state_40b2c7|11|1 15,0,0,0,0,0,0,0,0,0,0,0,0,0,0,15,
scooby_state_41e0ba|10|4 15,0,0,0,0,0,0,0,0,0,0,0,0,0,0,15,
scooby_state_4070a0|2|-35 15,0,0,0,0,0,0,0,0,0,0,0,0,0,0,15,
scooby_state_40acc1|51|1 15,0,0,0,0,0,0,0,0,0,0,0,0,0,0,15,
scooby_state_43d0c5|3|1 15,0,0,0,0,0,0,0,0,0,0,0,0,0,0,15,
scooby_state_43b0c3|3|1 10,5,0,0,0,0,0,0,0,0,0,0,0,0,0,15,
scooby_state_440242|9|2 15,0,0,0,0,0,0,0,0,0,0,0,0,0,0,15,
scooby_state_43d141|5|1 15,0,0,0,0,0,0,0,0,0,0,0,0,0,0,15,
scooby_state_43ced0|59|-4 14,0,0,0,0,0,0,0,0,0,0,0,0,0,0,14,
scooby_state_41e226|47|-1 14,0,0,0,0,0,0,0,0,0,0,0,0,0,0,14,
scooby_state_43b142|5|1 14,0,0,0,0,0,0,0,0,0,0,0,0,0,0,14,
scooby_state_405010|0|-39 14,0,0,0,0,0,0,0,0,0,0,0,0,0,0,14,
scooby_state_43a9c1|39|2 14,0,0,0,0,0,0,0,0,0,0,0,0,0,0,14,
scooby_state_41e0ba|33|4 14,0,0,0,0,0,0,0,0,0,0,0,0,0,0,14,
scooby_state_43d4c0|19|1 14,0,0,0,0,0,0,0,0,0,0,0,0,0,0,14,
scooby_state_40a0a0|2|-25 14,0,0,0,0,0,0,0,0,0,0,0,0,0,0,14,
scooby_state_41e0ba|14|3 14,0,0,0,0,0,0,0,0,0,0,0,0,0,0,14,
scooby_state_457b53|31|8 2,0,0,0,1,0,0,4,2,0,0,0,1,2,2,14,
scooby_state_407943|37|-12 14,0,0,0,0,0,0,0,0,0,0,0,0,0,0,14,
scooby_state_43a240|9|1 14,0,0,0,0,0,0,0,0,0,0,0,0,0,0,14,
scooby_state_41e0ba|8|2 13,0,0,0,0,0,0,0,0,0,0,1,0,0,0,14,
scooby_state_40b359|13|-48 13,0,0,0,0,0,0,0,0,0,0,0,1,0,0,14,
scooby_state_41e0f1|42|-2 14,0,0,0,0,0,0,0,0,0,0,0,0,0,0,14,
scooby_state_40b958|37|33 6,8,0,0,0,0,0,0,0,0,0,0,0,0,0,14,
scooby_state_43902d|51|0 14,0,0,0,0,0,0,0,0,0,0,0,0,0,0,14,
scooby_state_457b53|42|7 2,1,1,1,0,0,1,1,1,1,1,2,1,0,1,14,
scooby_state_4575fb|55|15 0,0,0,1,1,1,0,1,1,1,2,2,1,2,1,14,
scooby_state_44c752|29|1 14,0,0,0,0,0,0,0,0,0,0,0,0,0,0,14,
scooby_state_41e0ba|43|4 14,0,0,0,0,0,0,0,0,0,0,0,0,0,0,14,
scooby_state_40df0f|11|0 8,1,0,0,0,0,0,1,0,1,0,0,2,0,1,14,
scooby_state_41e0ba|6|2 14,0,0,0,0,0,0,0,0,0,0,0,0,0,0,14,
scooby_state_40b304|12|1 14,0,0,0,0,0,0,0,0,0,0,0,0,0,0,14,
scooby_state_40e12a|4|0 14,0,0,0,0,0,0,0,0,0,0,0,0,0,0,14,
scooby_state_41e0f1|1|-2 14,0,0,0,0,0,0,0,0,0,0,0,0,0,0,14,
scooby_state_4575f2|24|8 2,4,0,0,1,1,1,0,0,1,2,1,0,1,0,14,
scooby_state_44c701|28|1 14,0,0,0,0,0,0,0,0,0,0,0,0,0,0,14,
scooby_state_440ef9|59|17 14,0,0,0,0,0,0,0,0,0,0,0,0,0,0,14,
scooby_state_40ccc2|51|14 14,0,0,0,0,0,0,0,0,0,0,0,0,0,0,14,
scooby_state_40b786|30|1 14,0,0,0,0,0,0,0,0,0,0,0,0,0,0,14,
scooby_state_408918|36|-2 14,0,0,0,0,0,0,0,0,0,0,0,0,0,0,14,
scooby_state_40d200|8|1 14,0,0,0,0,0,0,0,0,0,0,0,0,0,0,14,
scooby_state_44c6c0|27|1 14,0,0,0,0,0,0,0,0,0,0,0,0,0,0,14,
scooby_state_4575f2|28|8 4,3,1,0,0,1,2,0,0,0,1,2,0,0,0,14,
scooby_state_40b642|25|1 14,0,0,0,0,0,0,0,0,0,0,0,0,0,0,14,
scooby_state_440b40|45|-6 14,0,0,0,0,0,0,0,0,0,0,0,0,0,0,14,
scooby_state_4094b1|35|0 10,4,0,0,0,0,0,0,0,0,0,0,0,0,0,14,
scooby_state_41e0f1|32|-2 14,0,0,0,0,0,0,0,0,0,0,0,0,0,0,14,
scooby_state_41e0a7|12|3 1,13,0,0,0,0,0,0,0,0,0,0,0,0,0,14,
scooby_state_44a4c0|19|10 10,0,0,1,1,1,0,0,1,0,0,0,0,0,0,14,
scooby_state_40afa9|62|27 14,0,0,0,0,0,0,0,0,0,0,0,0,0,0,14,
scooby_state_409741|29|1 14,0,0,0,0,0,0,0,0,0,0,0,0,0,0,14,
scooby_state_40df0f|10|0 8,0,2,0,0,0,0,1,0,2,0,0,0,1,0,14,
scooby_state_43af20|60|58 14,0,0,0,0,0,0,0,0,0,0,0,0,0,0,14,
scooby_state_43d000|0|-62 14,0,0,0,0,0,0,0,0,0,0,0,0,0,0,14,
scooby_state_4408e0|35|-4 14,0,0,0,0,0,0,0,0,0,0,0,0,0,0,14,
scooby_state_41e0f1|31|-2 14,0,0,0,0,0,0,0,0,0,0,0,0,0,0,14,
scooby_state_41e0ba|36|3 14,0,0,0,0,0,0,0,0,0,0,0,0,0,0,14,
scooby_state_4575f2|20|7 2,1,1,2,0,1,0,0,2,0,0,0,1,2,2,14,
scooby_state_41e0f6|11|-1 0,14,0,0,0,0,0,0,0,0,0,0,0,0,0,14,
scooby_state_43e641|25|1 14,0,0,0,0,0,0,0,0,0,0,0,0,0,0,14,
scooby_state_44a008|0|-10 14,0,0,0,0,0,0,0,0,0,0,0,0,0,0,14,
scooby_state_43c917|36|1 14,0,0,0,0,0,0,0,0,0,0,0,0,0,0,14,
scooby_state_43a240|9|-9 14,0,0,0,0,0,0,0,0,0,0,0,0,0,0,14,
scooby_state_405952|37|2 13,1,0,0,0,0,0,0,0,0,0,0,0,0,0,14,
scooby_state_41e0f1|23|-2 14,0,0,0,0,0,0,0,0,0,0,0,0,0,0,14,
scooby_state_41e0f6|27|1 0,14,0,0,0,0,0,0,0,0,0,0,0,0,0,14,
scooby_state_41e0a7|24|2 3,11,0,0,0,0,0,0,0,0,0,0,0,0,0,14,
scooby_state_41e0a7|17|3 4,10,0,0,0,0,0,0,0,0,0,0,0,0,0,14,
scooby_state_43ebf0|47|44 14,0,0,0,0,0,0,0,0,0,0,0,0,0,0,14,
scooby_state_43d184|6|4 14,0,0,0,0,0,0,0,0,0,0,0,0,0,0,14,
scooby_state_43fa62|41|5 4,1,0,0,0,0,0,0,0,0,0,0,8,1,0,14,
scooby_state_406460|17|16 14,0,0,0,0,0,0,0,0,0,0,0,0,0,0,14,
scooby_state_43a0b0|2|1 13,1,0,0,0,0,0,0,0,0,0,0,0,0,0,14,
scooby_state_41e0ba|25|4 14,0,0,0,0,0,0,0,0,0,0,0,0,0,0,14,
scooby_state_440542|21|1 14,0,0,0,0,0,0,0,0,0,0,0,0,0,0,14,
scooby_state_43c945|37|1 14,0,0,0,0,0,0,0,0,0,0,0,0,0,0,14,
scooby_state_40df18|58|0 6,0,0,3,1,0,0,0,1,2,0,0,0,0,1,14,
scooby_state_43a0b0|2|-61 14,0,0,0,0,0,0,0,0,0,0,0,0,0,0,14,
scooby_state_43e132|4|-3 14,0,0,0,0,0,0,0,0,0,0,0,0,0,0,14,
scooby_state_41e0ba|31|4 14,0,0,0,0,0,0,0,0,0,0,0,0,0,0,14,
scooby_state_41e0ba|56|3 14,0,0,0,0,0,0,0,0,0,0,0,0,0,0,14,
scooby_state_41e0f1|55|-2 14,0,0,0,0,0,0,0,0,0,0,0,0,0,0,14,
scooby_state_41e0f1|22|-2 14,0,0,0,0,0,0,0,0,0,0,0,0,0,0,14,
scooby_state_41e0ba|6|4 14,0,0,0,0,0,0,0,0,0,0,0,0,0,0,14,
scooby_state_43e6bf|26|1 14,0,0,0,0,0,0,0,0,0,0,0,0,0,0,14,
scooby_state_4575f2|44|7 2,1,1,2,0,2,0,0,2,0,2,0,0,0,2,14,
scooby_state_41e0ba|13|3 14,0,0,0,0,0,0,0,0,0,0,0,0,0,0,14,
scooby_state_43cfd0|63|13 9,0,0,0,0,0,0,0,0,0,0,0,5,0,0,14,
scooby_state_41e0a7|14|2 1,13,0,0,0,0,0,0,0,0,0,0,0,0,0,14,
scooby_state_43a945|37|-24 14,0,0,0,0,0,0,0,0,0,0,0,0,0,0,14,
scooby_state_4575f2|17|7 2,1,1,2,0,2,2,0,2,0,0,0,0,2,0,14,
scooby_state_438f2b|60|8 14,0,0,0,0,0,0,0,0,0,0,0,0,0,0,14,
scooby_state_43f130|4|-55 14,0,0,0,0,0,0,0,0,0,0,0,0,0,0,14,
scooby_state_40df18|3|0 3,1,1,2,1,1,0,0,0,1,0,1,1,1,0,13,
scooby_state_457b53|51|7 2,1,1,1,1,0,1,1,1,1,0,1,1,0,1,13,
scooby_state_41e0ba|4|4 13,0,0,0,0,0,0,0,0,0,0,0,0,0,0,13,
scooby_state_41e0ba|11|4 13,0,0,0,0,0,0,0,0,0,0,0,0,0,0,13,
scooby_state_40e049|13|0 3,3,1,1,0,0,0,1,0,1,0,1,0,1,1,13,
scooby_state_41e0f1|21|-2 13,0,0,0,0,0,0,0,0,0,0,0,0,0,0,13,
scooby_state_40e049|49|0 2,3,1,1,0,0,0,1,0,1,0,1,0,1,2,13,
scooby_state_41e0ba|41|4 13,0,0,0,0,0,0,0,0,0,0,0,0,0,0,13,
scooby_state_41df52|50|1 13,0,0,0,0,0,0,0,0,0,0,0,0,0,0,13,
scooby_state_43e008|0|-4 0,13,0,0,0,0,0,0,0,0,0,0,0,0,0,13,
scooby_state_4089c4|39|-23 13,0,0,0,0,0,0,0,0,0,0,0,0,0,0,13,
scooby_state_41e0ba|62|2 13,0,0,0,0,0,0,0,0,0,0,0,0,0,0,13,
scooby_state_40df18|10|0 4,0,0,0,1,2,0,0,0,1,1,0,2,1,1,13,
scooby_state_43a403|16|1 13,0,0,0,0,0,0,0,0,0,0,0,0,0,0,13,
scooby_state_41e0ba|34|4 13,0,0,0,0,0,0,0,0,0,0,0,0,0,0,13,
scooby_state_441ed4|59|1 13,0,0,0,0,0,0,0,0,0,0,0,0,0,0,13,
scooby_state_440680|26|1 13,0,0,0,0,0,0,0,0,0,0,0,0,0,0,13,
scooby_state_41e0f6|12|1 2,11,0,0,0,0,0,0,0,0,0,0,0,0,0,13,
scooby_state_40a704|28|1 13,0,0,0,0,0,0,0,0,0,0,0,0,0,0,13,
scooby_state_406090|2|1 2,11,0,0,0,0,0,0,0,0,0,0,0,0,0,13,
scooby_state_4403c2|15|7 13,0,0,0,0,0,0,0,0,0,0,0,0,0,0,13,
scooby_state_43e0b8|2|-34 13,0,0,0,0,0,0,0,0,0,0,0,0,0,0,13,
scooby_state_41e0ba|40|4 13,0,0,0,0,0,0,0,0,0,0,0,0,0,0,13,
scooby_state_43a0b0|2|-20 13,0,0,0,0,0,0,0,0,0,0,0,0,0,0,13,
scooby_state_457b53|49|8 1,0,1,0,1,1,0,3,1,0,1,0,2,1,1,13,
scooby_state_41e0f1|60|-2 13,0,0,0,0,0,0,0,0,0,0,0,0,0,0,13,
scooby_state_40df18|0|0 4,0,1,0,1,1,0,1,0,1,0,1,2,0,1,13,
scooby_state_43ea43|41|1 13,0,0,0,0,0,0,0,0,0,0,0,0,0,0,13,
scooby_state_41e0ba|40|3 13,0,0,0,0,0,0,0,0,0,0,0,0,0,0,13,
scooby_state_41e0f6|0|-1 3,10,0,0,0,0,0,0,0,0,0,0,0,0,0,13,
scooby_state_40e049|12|-1 10,0,0,1,0,0,0,0,1,0,0,0,1,0,0,13,
scooby_state_41e0ba|7|3 12,1,0,0,0,0,0,0,0,0,0,0,0,0,0,13,
scooby_state_439240|9|1 13,0,0,0,0,0,0,0,0,0,0,0,0,0,0,13,
scooby_state_4575f2|6|0 3,1,0,0,1,0,1,0,0,0,1,2,2,2,0,13,
scooby_state_43cf02|60|-3 13,0,0,0,0,0,0,0,0,0,0,0,0,0,0,13,
scooby_state_41e0ba|21|3 13,0,0,0,0,0,0,0,0,0,0,0,0,0,0,13,
scooby_state_43cf80|62|7 13,0,0,0,0,0,0,0,0,0,0,0,0,0,0,13,
scooby_state_40df18|51|0 3,0,0,2,0,1,1,1,0,1,1,0,0,0,3,13,
scooby_state_406460|17|14 13,0,0,0,0,0,0,0,0,0,0,0,0,0,0,13,
scooby_state_41e0ba|50|4 13,0,0,0,0,0,0,0,0,0,0,0,0,0,0,13,
scooby_state_407cd2|51|3 13,0,0,0,0,0,0,0,0,0,0,0,0,0,0,13,
scooby_state_440362|13|-2 13,0,0,0,0,0,0,0,0,0,0,0,0,0,0,13,
scooby_state_43b1a0|6|1 13,0,0,0,0,0,0,0,0,0,0,0,0,0,0,13,
scooby_state_4048f6|35|1 13,0,0,0,0,0,0,0,0,0,0,0,0,0,0,13,
scooby_state_41e0ba|35|4 13,0,0,0,0,0,0,0,0,0,0,0,0,0,0,13,
scooby_state_43e0b8|2|2 13,0,0,0,0,0,0,0,0,0,0,0,0,0,0,13,
scooby_state_43ce01|56|1 0,13,0,0,0,0,0,0,0,0,0,0,0,0,0,13,
scooby_state_449dc0|55|1 13,0,0,0,0,0,0,0,0,0,0,0,0,0,0,13,
scooby_state_4575f2|37|8 4,2,1,0,0,2,0,0,0,2,0,2,0,0,0,13,
scooby_state_405150|5|-34 13,0,0,0,0,0,0,0,0,0,0,0,0,0,0,13,
scooby_state_40e1a9|6|1 13,0,0,0,0,0,0,0,0,0,0,0,0,0,0,13,
scooby_state_41e0ba|53|3 13,0,0,0,0,0,0,0,0,0,0,0,0,0,0,13,
scooby_state_43a8aa|34|8 13,0,0,0,0,0,0,0,0,0,0,0,0,0,0,13,
scooby_state_43f341|13|6 13,0,0,0,0,0,0,0,0,0,0,0,0,0,0,13,
scooby_state_40df0f|29|0 5,1,0,0,1,1,1,1,1,0,0,1,1,0,0,13,
scooby_state_40a960|37|-1 11,2,0,0,0,0,0,0,0,0,0,0,0,0,0,13,
scooby_state_438f40|61|13 13,0,0,0,0,0,0,0,0,0,0,0,0,0,0,13,
scooby_state_457748|18|0 13,0,0,0,0,0,0,0,0,0,0,0,0,0,0,13,
scooby_state_43fd86|54|1 13,0,0,0,0,0,0,0,0,0,0,0,0,0,0,13,
scooby_state_43908a|51|0 13,0,0,0,0,0,0,0,0,0,0,0,0,0,0,13,
scooby_state_41e0e4|48|2 13,0,0,0,0,0,0,0,0,0,0,0,0,0,0,13,
scooby_state_43a680|26|1 6,7,0,0,0,0,0,0,0,0,0,0,0,0,0,13,
scooby_state_41e0ba|58|3 13,0,0,0,0,0,0,0,0,0,0,0,0,0,0,13,
scooby_state_41e0f6|6|1 0,13,0,0,0,0,0,0,0,0,0,0,0,0,0,13,
scooby_state_441726|28|12 12,0,1,0,0,0,0,0,0,0,0,0,0,0,0,13,
scooby_state_40c8c3|35|-4 13,0,0,0,0,0,0,0,0,0,0,0,0,0,0,13,
scooby_state_43d342|13|3 13,0,0,0,0,0,0,0,0,0,0,0,0,0,0,13,
scooby_state_40dfe3|63|2 13,0,0,0,0,0,0,0,0,0,0,0,0,0,0,13,
scooby_state_43f8c5|35|1 13,0,0,0,0,0,0,0,0,0,0,0,0,0,0,13,
scooby_state_4575f2|53|7 1,1,1,2,0,2,0,2,2,2,0,0,0,0,0,13,
scooby_state_41e0f1|44|-2 13,0,0,0,0,0,0,0,0,0,0,0,0,0,0,13,
scooby_state_409680|26|22 13,0,0,0,0,0,0,0,0,0,0,0,0,0,0,13,
scooby_state_4073e1|15|2 12,1,0,0,0,0,0,0,0,0,0,0,0,0,0,13,
scooby_state_440641|25|1 13,0,0,0,0,0,0,0,0,0,0,0,0,0,0,13,
scooby_state_41e0ba|9|2 13,0,0,0,0,0,0,0,0,0,0,0,0,0,0,13,
scooby_state_4575f2|33|8 4,3,0,0,0,1,0,1,1,0,0,0,1,1,1,13,
scooby_state_41e0f1|5|-2 13,0,0,0,0,0,0,0,0,0,0,0,0,0,0,13,
scooby_state_4080c0|3|-59 13,0,0,0,0,0,0,0,0,0,0,0,0,0,0,13,
scooby_state_43d170|5|4 13,0,0,0,0,0,0,0,0,0,0,0,0,0,0,13,
scooby_state_441f53|61|1 13,0,0,0,0,0,0,0,0,0,0,0,0,0,0,13,
scooby_state_40df18|49|0 1,1,1,1,2,0,0,1,0,1,0,1,2,0,1,12,
scooby_state_41e0f1|8|-2 12,0,0,0,0,0,0,0,0,0,0,0,0,0,0,12,
scooby_state_41e0ba|45|3 12,0,0,0,0,0,0,0,0,0,0,0,0,0,0,12,
scooby_state_40a0a0|2|-61 12,0,0,0,0,0,0,0,0,0,0,0,0,0,0,12,
scooby_state_44a1ee|7|-12 12,0,0,0,0,0,0,0,0,0,0,0,0,0,0,12,
scooby_state_4401c0|7|-7 12,0,0,0,0,0,0,0,0,0,0,0,0,0,0,12,
scooby_state_4389b0|38|-10 12,0,0,0,0,0,0,0,0,0,0,0,0,0,0,12,
scooby_state_4575f2|40|8 4,3,1,0,0,2,0,0,0,2,0,0,0,0,0,12,
scooby_state_41e0a7|9|3 4,8,0,0,0,0,0,0,0,0,0,0,0,0,0,12,
scooby_state_457b53|0|0 5,0,0,1,0,0,0,0,3,0,0,1,1,0,1,12,
scooby_state_40bf89|62|1 7,0,0,0,0,0,0,0,0,0,0,5,0,0,0,12,
scooby_state_418aa3|1|0 4,3,0,0,2,1,0,0,0,0,1,0,1,0,0,12,
scooby_state_43d342|13|5 12,0,0,0,0,0,0,0,0,0,0,0,0,0,0,12,
scooby_state_43902d|51|1 12,0,0,0,0,0,0,0,0,0,0,0,0,0,0,12,
scooby_state_457b53|47|8 1,0,1,0,1,0,0,4,1,0,1,0,1,1,1,12,
scooby_state_41e0f6|2|1 1,11,0,0,0,0,0,0,0,0,0,0,0,0,0,12,
scooby_state_4093c1|15|1 12,0,0,0,0,0,0,0,0,0,0,0,0,0,0,12,
scooby_state_44a284|10|-9 12,0,0,0,0,0,0,0,0,0,0,0,0,0,0,12,
scooby_state_408f85|62|13 10,0,0,0,1,1,0,0,0,0,0,0,0,0,0,12,
scooby_state_43ed92|54|1 12,0,0,0,0,0,0,0,0,0,0,0,0,0,0,12,
scooby_state_41e0a7|27|3 3,9,0,0,0,0,0,0,0,0,0,0,0,0,0,12,
scooby_state_407f80|62|23 12,0,0,0,0,0,0,0,0,0,0,0,0,0,0,12,
scooby_state_4058c1|35|-26 12,0,0,0,0,0,0,0,0,0,0,0,0,0,0,12,
scooby_state_405010|0|-37 12,0,0,0,0,0,0,0,0,0,0,0,0,0,0,12,
scooby_state_41e0f6|9|1 0,12,0,0,0,0,0,0,0,0,0,0,0,0,0,12,
scooby_state_40b0bd|2|-5 12,0,0,0,0,0,0,0,0,0,0,0,0,0,0,12,
scooby_state_441e57|57|-2 12,0,0,0,0,0,0,0,0,0,0,0,0,0,0,12,
scooby_state_43ef58|61|-1 12,0,0,0,0,0,0,0,0,0,0,0,0,0,0,12,
scooby_state_404ec0|59|-2 12,0,0,0,0,0,0,0,0,0,0,0,0,0,0,12,
scooby_state_4070a0|2|-60 12,0,0,0,0,0,0,0,0,0,0,0,0,0,0,12,
scooby_state_4575f2|16|7 1,1,0,2,0,1,1,0,2,1,0,0,1,1,1,12,
scooby_state_404e40|57|1 12,0,0,0,0,0,0,0,0,0,0,0,0,0,0,12,
scooby_state_41e0f6|40|1 1,11,0,0,0,0,0,0,0,0,0,0,0,0,0,12,
scooby_state_457b53|61|8 1,0,1,0,1,1,0,4,1,0,0,0,1,1,1,12,
scooby_state_41e0f6|8|1 0,12,0,0,0,0,0,0,0,0,0,0,0,0,0,12,
scooby_state_406481|18|15 11,0,0,0,0,0,0,0,1,0,0,0,0,0,0,12,
scooby_state_43edc2|55|2 12,0,0,0,0,0,0,0,0,0,0,0,0,0,0,12,
scooby_state_440c2e|48|19 12,0,0,0,0,0,0,0,0,0,0,0,0,0,0,12,
scooby_state_43af20|60|0 12,0,0,0,0,0,0,0,0,0,0,0,0,0,0,12,
scooby_state_41e0ba|25|3 12,0,0,0,0,0,0,0,0,0,0,0,0,0,0,12,
scooby_state_41e0f1|0|-2 12,0,0,0,0,0,0,0,0,0,0,0,0,0,0,12,
scooby_state_43906b|1|-7 12,0,0,0,0,0,0,0,0,0,0,0,0,0,0,12,
scooby_state_406340|13|-6 12,0,0,0,0,0,0,0,0,0,0,0,0,0,0,12,
scooby_state_41e0f1|20|-1 12,0,0,0,0,0,0,0,0,0,0,0,0,0,0,12,
scooby_state_41e0f1|51|-1 12,0,0,0,0,0,0,0,0,0,0,0,0,0,0,12,
scooby_state_43f900|36|1 12,0,0,0,0,0,0,0,0,0,0,0,0,0,0,12,
scooby_state_41e0f6|51|1 1,11,0,0,0,0,0,0,0,0,0,0,0,0,0,12,
scooby_state_43a780|30|1 12,0,0,0,0,0,0,0,0,0,0,0,0,0,0,12,
scooby_state_40b216|8|1 12,0,0,0,0,0,0,0,0,0,0,0,0,0,0,12,
scooby_state_43945e|47|-5 12,0,0,0,0,0,0,0,0,0,0,0,0,0,0,12,
scooby_state_457b53|52|8 1,0,1,0,1,0,0,5,1,0,0,0,1,1,1,12,
scooby_state_408087|2|0 12,0,0,0,0,0,0,0,0,0,0,0,0,0,0,12,
scooby_state_41e0f1|28|-2 12,0,0,0,0,0,0,0,0,0,0,0,0,0,0,12,
scooby_state_406090|2|2 12,0,0,0,0,0,0,0,0,0,0,0,0,0,0,12,
scooby_state_43cfd0|63|14 8,2,0,0,0,0,1,0,0,0,0,0,1,0,0,12,
scooby_state_41e0ba|52|2 12,0,0,0,0,0,0,0,0,0,0,0,0,0,0,12,
scooby_state_40ccc2|51|0 12,0,0,0,0,0,0,0,0,0,0,0,0,0,0,12,
scooby_state_41e0f6|29|1 0,12,0,0,0,0,0,0,0,0,0,0,0,0,0,12,
scooby_state_43f1e0|7|6 12,0,0,0,0,0,0,0,0,0,0,0,0,0,0,12,
scooby_state_41aec0|59|1 12,0,0,0,0,0,0,0,0,0,0,0,0,0,0,12,
scooby_state_43a581|22|1 12,0,0,0,0,0,0,0,0,0,0,0,0,0,0,12,
scooby_state_43ccac|50|1 8,0,0,0,0,0,0,1,0,0,0,1,1,0,1,12,
scooby_state_4575f2|40|-22 12,0,0,0,0,0,0,0,0,0,0,0,0,0,0,12,
scooby_state_40b004|0|-5 11,0,0,0,0,1,0,0,0,0,0,0,0,0,0,12,
scooby_state_41e0a7|19|2 3,9,0,0,0,0,0,0,0,0,0,0,0,0,0,12,
scooby_state_40e049|35|0 3,3,0,1,0,1,0,0,2,1,0,0,0,1,0,12,
scooby_state_41e112|23|0 10,2,0,0,0,0,0,0,0,0,0,0,0,0,0,12,
scooby_state_41e0f1|27|-2 12,0,0,0,0,0,0,0,0,0,0,0,0,0,0,12,
scooby_state_457b53|56|7 2,1,0,1,1,0,0,1,1,1,1,0,1,1,1,12,
scooby_state_4070a0|2|-61 12,0,0,0,0,0,0,0,0,0,0,0,0,0,0,12,
scooby_state_4390f8|3|-3 12,0,0,0,0,0,0,0,0,0,0,0,0,0,0,12,
scooby_state_4575f2|52|8 4,4,1,0,0,2,0,0,0,0,0,1,0,0,0,12,
scooby_state_4394c2|19|1 12,0,0,0,0,0,0,0,0,0,0,0,0,0,0,12,
scooby_state_43ef76|61|59 12,0,0,0,0,0,0,0,0,0,0,0,0,0,0,12,
scooby_state_41e0ba|42|2 12,0,0,0,0,0,0,0,0,0,0,0,0,0,0,12,
scooby_state_457b53|7|0 5,2,0,0,0,0,0,0,3,0,0,1,0,0,1,12,
scooby_state_44a4c0|19|14 12,0,0,0,0,0,0,0,0,0,0,0,0,0,0,12,
scooby_state_457b53|20|0 3,0,2,1,0,1,0,0,3,0,0,2,0,0,0,12,
scooby_state_40804d|1|-38 3,8,1,0,0,0,0,0,0,0,0,0,0,0,0,12,
scooby_state_41e0ba|7|4 12,0,0,0,0,0,0,0,0,0,0,0,0,0,0,12,
scooby_state_440380|14|8 12,0,0,0,0,0,0,0,0,0,0,0,0,0,0,12,
scooby_state_41e0ba|52|4 12,0,0,0,0,0,0,0,0,0,0,0,0,0,0,12,
scooby_state_441795|30|1 12,0,0,0,0,0,0,0,0,0,0,0,0,0,0,12,
scooby_state_41e0a7|1|0 3,9,0,0,0,0,0,0,0,0,0,0,0,0,0,12,
scooby_state_40df18|39|0 4,2,0,0,0,0,0,0,1,1,1,1,1,1,0,12,
scooby_state_40af3c|60|23 12,0,0,0,0,0,0,0,0,0,0,0,0,0,0,12,
scooby_state_41afb0|62|3 12,0,0,0,0,0,0,0,0,0,0,0,0,0,0,12,
scooby_state_457b53|56|8 1,0,1,0,1,1,0,4,1,0,0,0,1,1,1,12,
scooby_state_43edc2|55|1 12,0,0,0,0,0,0,0,0,0,0,0,0,0,0,12,
scooby_state_406700|28|13 12,0,0,0,0,0,0,0,0,0,0,0,0,0,0,12,
scooby_state_43e5a0|22|3 0,12,0,0,0,0,0,0,0,0,0,0,0,0,0,12,
scooby_state_41af60|61|-2 12,0,0,0,0,0,0,0,0,0,0,0,0,0,0,12,
scooby_state_405952|37|37 12,0,0,0,0,0,0,0,0,0,0,0,0,0,0,12,
scooby_state_41e0f6|13|-1 3,9,0,0,0,0,0,0,0,0,0,0,0,0,0,12,
scooby_state_41e0f6|28|1 0,12,0,0,0,0,0,0,0,0,0,0,0,0,0,12,
scooby_state_440e81|58|1 12,0,0,0,0,0,0,0,0,0,0,0,0,0,0,12,
scooby_state_43ed09|52|3 12,0,0,0,0,0,0,0,0,0,0,0,0,0,0,12,
scooby_state_43fd0b|52|39 12,0,0,0,0,0,0,0,0,0,0,0,0,0,0,12,
scooby_state_44c781|30|1 12,0,0,0,0,0,0,0,0,0,0,0,0,0,0,12,
scooby_state_41e0f1|50|-2 12,0,0,0,0,0,0,0,0,0,0,0,0,0,0,12,
scooby_state_40df18|63|0 3,0,1,0,0,2,0,0,0,2,1,0,0,3,0,12,
scooby_state_40df18|4|0 3,1,1,0,0,1,1,1,1,1,0,1,0,1,0,12,
scooby_state_45633d|16|0 12,0,0,0,0,0,0,0,0,0,0,0,0,0,0,12,
scooby_state_40b153|5|2 11,0,0,0,0,0,0,0,0,0,0,0,0,0,0,11,
scooby_state_409010|0|-4 11,0,0,0,0,0,0,0,0,0,0,0,0,0,0,11,
scooby_state_43f900|36|-11 11,0,0,0,0,0,0,0,0,0,0,0,0,0,0,11,
scooby_state_438fbc|50|0 11,0,0,0,0,0,0,0,0,0,0,0,0,0,0,11,
scooby_state_43cc40|49|0 11,0,0,0,0,0,0,0,0,0,0,0,0,0,0,11,
scooby_state_40df18|62|0 3,0,1,0,0,0,0,0,3,1,1,0,0,0,2,11,
scooby_state_44a7c3|31|1 11,0,0,0,0,0,0,0,0,0,0,0,0,0,0,11,
scooby_state_438d46|53|-7 11,0,0,0,0,0,0,0,0,0,0,0,0,0,0,11,
scooby_state_41e2a1|3|0 11,0,0,0,0,0,0,0,0,0,0,0,0,0,0,11,
scooby_state_41e0ba|53|4 11,0,0,0,0,0,0,0,0,0,0,0,0,0,0,11,
scooby_state_43dd42|53|4 11,0,0,0,0,0,0,0,0,0,0,0,0,0,0,11,
scooby_state_43d328|12|2 11,0,0,0,0,0,0,0,0,0,0,0,0,0,0,11,
scooby_state_41e0f1|25|-1 11,0,0,0,0,0,0,0,0,0,0,0,0,0,0,11,
scooby_state_43b8c7|35|-4 0,11,0,0,0,0,0,0,0,0,0,0,0,0,0,11,
scooby_state_43ecc0|51|2 4,6,1,0,0,0,0,0,0,0,0,0,0,0,0,11,
scooby_state_441544|21|0 11,0,0,0,0,0,0,0,0,0,0,0,0,0,0,11,
scooby_state_40e049|25|0 2,3,0,1,0,0,0,1,0,1,0,1,0,1,1,11,
scooby_state_41e105|4|2 11,0,0,0,0,0,0,0,0,0,0,0,0,0,0,11,
scooby_state_40c8c3|35|-21 11,0,0,0,0,0,0,0,0,0,0,0,0,0,0,11,
scooby_state_409508|20|1 11,0,0,0,0,0,0,0,0,0,0,0,0,0,0,11,
scooby_state_41e0f1|39|-2 11,0,0,0,0,0,0,0,0,0,0,0,0,0,0,11,
scooby_state_41e0f1|59|-2 11,0,0,0,0,0,0,0,0,0,0,0,0,0,0,11,
scooby_state_43dc40|49|1 9,0,0,0,0,0,0,0,0,0,0,1,1,0,0,11,
scooby_state_40b4c1|19|1 10,1,0,0,0,0,0,0,0,0,0,0,0,0,0,11,
scooby_state_4575f2|40|23 5,0,1,0,0,1,0,0,1,1,1,1,0,0,0,11,
scooby_state_40df40|61|-2 11,0,0,0,0,0,0,0,0,0,0,0,0,0,0,11,
scooby_state_41b5b0|22|13 3,3,0,0,1,1,1,1,1,0,0,0,0,0,0,11,
scooby_state_41e0f6|47|1 1,10,0,0,0,0,0,0,0,0,0,0,0,0,0,11,
scooby_state_41e0f1|18|-1 11,0,0,0,0,0,0,0,0,0,0,0,0,0,0,11,
scooby_state_457b53|60|7 2,1,1,1,1,0,0,1,1,1,0,1,1,0,0,11,
scooby_state_40b086|2|1 11,0,0,0,0,0,0,0,0,0,0,0,0,0,0,11,
scooby_state_44c555|21|1 2,0,0,1,1,0,1,1,0,1,1,0,1,0,2,11,
scooby_state_41e0ba|61|4 11,0,0,0,0,0,0,0,0,0,0,0,0,0,0,11,
scooby_state_449f47|61|4 11,0,0,0,0,0,0,0,0,0,0,0,0,0,0,11,
scooby_state_4080c0|3|-33 11,0,0,0,0,0,0,0,0,0,0,0,0,0,0,11,
scooby_state_43af20|60|60 11,0,0,0,0,0,0,0,0,0,0,0,0,0,0,11,
scooby_state_41e0a7|35|1 6,5,0,0,0,0,0,0,0,0,0,0,0,0,0,11,
scooby_state_40df62|61|0 11,0,0,0,0,0,0,0,0,0,0,0,0,0,0,11,
scooby_state_409703|28|1 11,0,0,0,0,0,0,0,0,0,0,0,0,0,0,11,
scooby_state_40df18|37|0 3,0,0,0,1,0,1,2,1,0,0,1,1,0,1,11,
scooby_state_40b1b0|6|-7 11,0,0,0,0,0,0,0,0,0,0,0,0,0,0,11,
scooby_state_439081|2|-61 11,0,0,0,0,0,0,0,0,0,0,0,0,0,0,11,
scooby_state_407f38|60|3 11,0,0,0,0,0,0,0,0,0,0,0,0,0,0,11,
scooby_state_457b53|32|14 11,0,0,0,0,0,0,0,0,0,0,0,0,0,0,11,
scooby_state_440a80|42|1 11,0,0,0,0,0,0,0,0,0,0,0,0,0,0,11,
scooby_state_438c41|49|-14 11,0,0,0,0,0,0,0,0,0,0,0,0,0,0,11,
scooby_state_40df18|16|0 2,1,0,1,2,0,1,0,0,1,0,0,1,1,1,11,
scooby_state_41e0f6|11|1 2,9,0,0,0,0,0,0,0,0,0,0,0,0,0,11,
scooby_state_40b481|18|-44 11,0,0,0,0,0,0,0,0,0,0,0,0,0,0,11,
scooby_state_41e0f1|43|-2 11,0,0,0,0,0,0,0,0,0,0,0,0,0,0,11,
scooby_state_41e0f6|20|1 2,9,0,0,0,0,0,0,0,0,0,0,0,0,0,11,
scooby_state_41e0f1|15|-1 11,0,0,0,0,0,0,0,0,0,0,0,0,0,0,11,
scooby_state_457b53|50|8 1,0,0,0,1,1,0,3,1,0,1,0,1,1,1,11,
scooby_state_406038|0|-15 11,0,0,0,0,0,0,0,0,0,0,0,0,0,0,11,
scooby_state_41e0a7|32|3 5,6,0,0,0,0,0,0,0,0,0,0,0,0,0,11,
scooby_state_4575f2|1|0 4,2,0,0,1,0,0,0,0,0,0,2,0,2,0,11,
scooby_state_40b6c0|27|-10 11,0,0,0,0,0,0,0,0,0,0,0,0,0,0,11,
scooby_state_41e0a7|53|3 1,10,0,0,0,0,0,0,0,0,0,0,0,0,0,11,
scooby_state_43f302|12|1 11,0,0,0,0,0,0,0,0,0,0,0,0,0,0,11,
scooby_state_41e0a7|15|3 4,7,0,0,0,0,0,0,0,0,0,0,0,0,0,11,
scooby_state_4089e0|39|-23 11,0,0,0,0,0,0,0,0,0,0,0,0,0,0,11,
scooby_state_43ef76|61|61 11,0,0,0,0,0,0,0,0,0,0,0,0,0,0,11,
scooby_state_404c30|48|1 11,0,0,0,0,0,0,0,0,0,0,0,0,0,0,11,
scooby_state_43cdc0|55|3 11,0,0,0,0,0,0,0,0,0,0,0,0,0,0,11,
scooby_state_41ae85|58|1 11,0,0,0,0,0,0,0,0,0,0,0,0,0,0,11,
scooby_state_41e0ba|15|3 11,0,0,0,0,0,0,0,0,0,0,0,0,0,0,11,
scooby_state_441402|16|1 11,0,0,0,0,0,0,0,0,0,0,0,0,0,0,11,
scooby_state_404782|30|1 11,0,0,0,0,0,0,0,0,0,0,0,0,0,0,11,
scooby_state_41e0ba|20|3 11,0,0,0,0,0,0,0,0,0,0,0,0,0,0,11,
scooby_state_40df18|7|0 4,0,1,0,0,2,1,0,0,0,1,0,1,0,1,11,
scooby_state_41e0ba|28|3 11,0,0,0,0,0,0,0,0,0,0,0,0,0,0,11,
scooby_state_44c582|22|1 11,0,0,0,0,0,0,0,0,0,0,0,0,0,0,11,
scooby_state_4089e0|39|37 7,0,1,0,0,0,0,3,0,0,0,0,0,0,0,11,
scooby_state_4093c1|15|14 5,0,0,0,1,0,1,2,1,0,1,0,0,0,0,11,
scooby_state_43e806|32|1 11,0,0,0,0,0,0,0,0,0,0,0,0,0,0,11,
scooby_state_441e0d|56|-1 11,0,0,0,0,0,0,0,0,0,0,0,0,0,0,11,
scooby_state_405150|5|-57 11,0,0,0,0,0,0,0,0,0,0,0,0,0,0,11,
scooby_state_41e0ba|32|4 11,0,0,0,0,0,0,0,0,0,0,0,0,0,0,11,
scooby_state_41b048|1|1 11,0,0,0,0,0,0,0,0,0,0,0,0,0,0,11,
scooby_state_41e0ba|29|2 11,0,0,0,0,0,0,0,0,0,0,0,0,0,0,11,
scooby_state_44a802|32|1 11,0,0,0,0,0,0,0,0,0,0,0,0,0,0,11,
scooby_state_41b2c1|11|1 11,0,0,0,0,0,0,0,0,0,0,0,0,0,0,11,
scooby_state_41b324|12|1 11,0,0,0,0,0,0,0,0,0,0,0,0,0,0,11,
scooby_state_457b53|17|0 5,0,0,0,0,2,0,0,2,0,0,0,0,2,0,11,
scooby_state_407d22|52|1 11,0,0,0,0,0,0,0,0,0,0,0,0,0,0,11,
scooby_state_40df18|23|0 3,1,1,1,1,1,0,0,0,0,2,0,0,0,1,11,
scooby_state_40afc5|63|1 7,4,0,0,0,0,0,0,0,0,0,0,0,0,0,11,
scooby_state_41e0ba|44|4 11,0,0,0,0,0,0,0,0,0,0,0,0,0,0,11,
scooby_state_41e0f1|4|-2 11,0,0,0,0,0,0,0,0,0,0,0,0,0,0,11,
scooby_state_4407f0|31|1 1,10,0,0,0,0,0,0,0,0,0,0,0,0,0,11,
scooby_state_438fc3|63|0 4,0,1,1,1,0,0,0,1,0,2,1,0,0,0,11,
scooby_state_4070a0|2|-24 11,0,0,0,0,0,0,0,0,0,0,0,0,0,0,11,
scooby_state_408f50|61|9 11,0,0,0,0,0,0,0,0,0,0,0,0,0,0,11,
scooby_state_43cf80|62|23 11,0,0,0,0,0,0,0,0,0,0,0,0,0,0,11,
scooby_state_43e371|13|6 11,0,0,0,0,0,0,0,0,0,0,0,0,0,0,11,
[...]
scooby_state_40df0f|44|38 1,0,0,0,0,0,0,0,0,0,0,0,0,0,0,1,
scooby_state_41a346|33|1 1,0,0,0,0,0,0,0,0,0,0,0,0,0,0,1,
scooby_state_40ab82|46|7 0,1,0,0,0,0,0,0,0,0,0,0,0,0,0,1,
scooby_state_43e0c0|3|-38 1,0,0,0,0,0,0,0,0,0,0,0,0,0,0,1,
scooby_state_45633d|16|-6 1,0,0,0,0,0,0,0,0,0,0,0,0,0,0,1,
scooby_state_40bd42|53|21 1,0,0,0,0,0,0,0,0,0,0,0,0,0,0,1,
scooby_state_41e256|14|-49 1,0,0,0,0,0,0,0,0,0,0,0,0,0,0,1,
scooby_state_41e0f6|7|-2 0,1,0,0,0,0,0,0,0,0,0,0,0,0,0,1,
scooby_state_40cbd6|48|-13 1,0,0,0,0,0,0,0,0,0,0,0,0,0,0,1,
scooby_state_4575f2|7|0 1,0,0,0,0,0,0,0,0,0,0,0,0,0,0,1,
scooby_state_40afbf|45|12 1,0,0,0,0,0,0,0,0,0,0,0,0,0,0,1,
scooby_state_40e049|33|1 1,0,0,0,0,0,0,0,0,0,0,0,0,0,0,1,
scooby_state_43df41|61|24 1,0,0,0,0,0,0,0,0,0,0,0,0,0,0,1,
scooby_state_43dfa8|22|20 1,0,0,0,0,0,0,0,0,0,0,0,0,0,0,1,
scooby_state_43d458|53|1 1,0,0,0,0,0,0,0,0,0,0,0,0,0,0,1,
scooby_state_4045a5|26|5 1,0,0,0,0,0,0,0,0,0,0,0,0,0,0,1,
scooby_state_43a0b0|2|-29 1,0,0,0,0,0,0,0,0,0,0,0,0,0,0,1,
scooby_state_40bf65|61|34 1,0,0,0,0,0,0,0,0,0,0,0,0,0,0,1,
scooby_state_404fd0|63|11 1,0,0,0,0,0,0,0,0,0,0,0,0,0,0,1,
scooby_state_49cf47|61|1 1,0,0,0,0,0,0,0,0,0,0,0,0,0,0,1,
scooby_state_43d641|25|-38 1,0,0,0,0,0,0,0,0,0,0,0,0,0,0,1,
scooby_state_41e256|23|2 1,0,0,0,0,0,0,0,0,0,0,0,0,0,0,1,
scooby_state_43acc2|51|33 1,0,0,0,0,0,0,0,0,0,0,0,0,0,0,1,
scooby_state_452004|57|-1 1,0,0,0,0,0,0,0,0,0,0,0,0,0,0,1,
scooby_state_41c390|14|-3 0,1,0,0,0,0,0,0,0,0,0,0,0,0,0,1,
scooby_state_43ac50|49|45 1,0,0,0,0,0,0,0,0,0,0,0,0,0,0,1,
scooby_state_40c8e3|14|0 1,0,0,0,0,0,0,0,0,0,0,0,0,0,0,1,
scooby_state_4051b6|24|1 1,0,0,0,0,0,0,0,0,0,0,0,0,0,0,1,
scooby_state_409346|45|12 1,0,0,0,0,0,0,0,0,0,0,0,0,0,0,1,
scooby_state_48a2e0|11|0 1,0,0,0,0,0,0,0,0,0,0,0,0,0,0,1,
scooby_state_40a9c1|39|12 1,0,0,0,0,0,0,0,0,0,0,0,0,0,0,1,
scooby_state_40df30|26|0 1,0,0,0,0,0,0,0,0,0,0,0,0,0,0,1,
scooby_state_43ce01|56|-2 0,1,0,0,0,0,0,0,0,0,0,0,0,0,0,1,
scooby_state_407abc|42|-16 1,0,0,0,0,0,0,0,0,0,0,0,0,0,0,1,
scooby_state_406530|20|0 1,0,0,0,0,0,0,0,0,0,0,0,0,0,0,1,
scooby_state_41e256|33|19 1,0,0,0,0,0,0,0,0,0,0,0,0,0,0,1,
scooby_state_419a5a|17|-5 1,0,0,0,0,0,0,0,0,0,0,0,0,0,0,1,
scooby_state_418a93|11|-50 1,0,0,0,0,0,0,0,0,0,0,0,0,0,0,1,
scooby_state_41f4a0|27|-7 1,0,0,0,0,0,0,0,0,0,0,0,0,0,0,1,
scooby_state_43fdc3|55|54 1,0,0,0,0,0,0,0,0,0,0,0,0,0,0,1,
scooby_state_4898b0|34|-2 1,0,0,0,0,0,0,0,0,0,0,0,0,0,0,1,
scooby_state_4077c1|31|-28 1,0,0,0,0,0,0,0,0,0,0,0,0,0,0,1,
scooby_state_4414cf|19|1 1,0,0,0,0,0,0,0,0,0,0,0,0,0,0,1,
scooby_state_41a346|21|1 1,0,0,0,0,0,0,0,0,0,0,0,0,0,0,1,
scooby_state_4575f2|43|1 1,0,0,0,0,0,0,0,0,0,0,0,0,0,0,1,
scooby_state_487c00|48|0 1,0,0,0,0,0,0,0,0,0,0,0,0,0,0,1,
scooby_state_407e90|58|-5 1,0,0,0,0,0,0,0,0,0,0,0,0,0,0,1,
scooby_state_408dd0|55|5 1,0,0,0,0,0,0,0,0,0,0,0,0,0,0,1,
scooby_state_40a546|21|-8 1,0,0,0,0,0,0,0,0,0,0,0,0,0,0,1,
scooby_state_419b42|7|-10 1,0,0,0,0,0,0,0,0,0,0,0,0,0,0,1,
scooby_state_4066c0|27|5 1,0,0,0,0,0,0,0,0,0,0,0,0,0,0,1,
scooby_state_40a720|28|10 1,0,0,0,0,0,0,0,0,0,0,0,0,0,0,1,
scooby_state_4048bc|46|-6 1,0,0,0,0,0,0,0,0,0,0,0,0,0,0,1,
scooby_state_419a83|41|12 1,0,0,0,0,0,0,0,0,0,0,0,0,0,0,1,
scooby_state_407a10|40|36 1,0,0,0,0,0,0,0,0,0,0,0,0,0,0,1,
scooby_state_41be73|1|-49 1,0,0,0,0,0,0,0,0,0,0,0,0,0,0,1,
scooby_state_41ea3e|13|-1 0,1,0,0,0,0,0,0,0,0,0,0,0,0,0,1,
scooby_state_404fe0|63|28 1,0,0,0,0,0,0,0,0,0,0,0,0,0,0,1,
scooby_state_41e256|47|-3 1,0,0,0,0,0,0,0,0,0,0,0,0,0,0,1,
scooby_state_40a943|37|-1 1,0,0,0,0,0,0,0,0,0,0,0,0,0,0,1,
scooby_state_43e048|1|-3 1,0,0,0,0,0,0,0,0,0,0,0,0,0,0,1,
scooby_state_43a018|0|-55 1,0,0,0,0,0,0,0,0,0,0,0,0,0,0,1,
scooby_state_418aa3|61|43 0,0,0,0,1,0,0,0,0,0,0,0,0,0,0,1,
scooby_state_418e90|58|3 1,0,0,0,0,0,0,0,0,0,0,0,0,0,0,1,
scooby_state_404590|22|0 1,0,0,0,0,0,0,0,0,0,0,0,0,0,0,1,
scooby_state_41b055|19|-1 1,0,0,0,0,0,0,0,0,0,0,0,0,0,0,1,
scooby_state_41e0f1|41|1 1,0,0,0,0,0,0,0,0,0,0,0,0,0,0,1,
scooby_state_41b9b8|39|25 1,0,0,0,0,0,0,0,0,0,0,0,0,0,0,1,
scooby_state_440583|22|-37 1,0,0,0,0,0,0,0,0,0,0,0,0,0,0,1,
scooby_state_41e256|56|45 1,0,0,0,0,0,0,0,0,0,0,0,0,0,0,1,
scooby_state_41a860|33|7 1,0,0,0,0,0,0,0,0,0,0,0,0,0,0,1,
scooby_state_404943|21|-26 0,0,0,0,0,0,0,0,1,0,0,0,0,0,0,1,
scooby_state_439584|22|-25 1,0,0,0,0,0,0,0,0,0,0,0,0,0,0,1,
scooby_state_41baac|9|1 1,0,0,0,0,0,0,0,0,0,0,0,0,0,0,1,
scooby_state_41e26c|38|1 1,0,0,0,0,0,0,0,0,0,0,0,0,0,0,1,
scooby_state_40cdf2|55|4 1,0,0,0,0,0,0,0,0,0,0,0,0,0,0,1,
scooby_state_40c8b5|60|0 0,1,0,0,0,0,0,0,0,0,0,0,0,0,0,1,
scooby_state_4389b0|38|-4 1,0,0,0,0,0,0,0,0,0,0,0,0,0,0,1,
scooby_state_487ab3|10|-3 1,0,0,0,0,0,0,0,0,0,0,0,0,0,0,1,
scooby_state_408c3c|47|1 0,1,0,0,0,0,0,0,0,0,0,0,0,0,0,1,
scooby_state_40c90b|48|0 1,0,0,0,0,0,0,0,0,0,0,0,0,0,0,1,
scooby_state_41e0c0|3|1 1,0,0,0,0,0,0,0,0,0,0,0,0,0,0,1,
scooby_state_41e292|22|-13 1,0,0,0,0,0,0,0,0,0,0,0,0,0,0,1,
scooby_state_40a3cd|22|5 1,0,0,0,0,0,0,0,0,0,0,0,0,0,0,1,
scooby_state_40c8f5|6|-4 0,0,0,0,0,0,0,0,0,0,0,0,1,0,0,1,
scooby_state_4575f2|62|13 1,0,0,0,0,0,0,0,0,0,0,0,0,0,0,1,
scooby_state_404f41|61|26 0,1,0,0,0,0,0,0,0,0,0,0,0,0,0,1,
scooby_state_404f6e|57|0 1,0,0,0,0,0,0,0,0,0,0,0,0,0,0,1,
scooby_state_49cf82|62|1 1,0,0,0,0,0,0,0,0,0,0,0,0,0,0,1,
scooby_state_457634|21|-4 1,0,0,0,0,0,0,0,0,0,0,0,0,0,0,1,
scooby_state_41be81|58|1 1,0,0,0,0,0,0,0,0,0,0,0,0,0,0,1,
scooby_state_40bf3d|60|48 0,0,0,1,0,0,0,0,0,0,0,0,0,0,0,1,
scooby_state_41e2a1|59|19 1,0,0,0,0,0,0,0,0,0,0,0,0,0,0,1,
scooby_state_4420fd|17|4 1,0,0,0,0,0,0,0,0,0,0,0,0,0,0,1,
scooby_state_41e2a1|14|1 1,0,0,0,0,0,0,0,0,0,0,0,0,0,0,1,
scooby_state_41317e|23|2 1,0,0,0,0,0,0,0,0,0,0,0,0,0,0,1,
scooby_state_408075|1|-3 1,0,0,0,0,0,0,0,0,0,0,0,0,0,0,1,
scooby_state_43c1d0|7|-56 1,0,0,0,0,0,0,0,0,0,0,0,0,0,0,1,
scooby_state_41bf04|13|-25 1,0,0,0,0,0,0,0,0,0,0,0,0,0,0,1,
scooby_state_41e0ba|44|1 1,0,0,0,0,0,0,0,0,0,0,0,0,0,0,1,
scooby_state_407e90|58|9 1,0,0,0,0,0,0,0,0,0,0,0,0,0,0,1,
scooby_state_41df64|19|-8 1,0,0,0,0,0,0,0,0,0,0,0,0,0,0,1,
scooby_state_41e0f6|30|-1 1,0,0,0,0,0,0,0,0,0,0,0,0,0,0,1,
scooby_state_40e01e|14|1 0,1,0,0,0,0,0,0,0,0,0,0,0,0,0,1,
scooby_state_457618|14|0 1,0,0,0,0,0,0,0,0,0,0,0,0,0,0,1,
scooby_state_41e0c2|20|4 1,0,0,0,0,0,0,0,0,0,0,0,0,0,0,1,
scooby_state_43f482|18|-1 1,0,0,0,0,0,0,0,0,0,0,0,0,0,0,1,
scooby_state_41a346|24|1 1,0,0,0,0,0,0,0,0,0,0,0,0,0,0,1,
scooby_state_4522c1|11|-14 1,0,0,0,0,0,0,0,0,0,0,0,0,0,0,1,
scooby_state_457634|45|1 1,0,0,0,0,0,0,0,0,0,0,0,0,0,0,1,
scooby_state_4c70a2|52|1 1,0,0,0,0,0,0,0,0,0,0,0,0,0,0,1,
scooby_state_413272|45|6 1,0,0,0,0,0,0,0,0,0,0,0,0,0,0,1,
scooby_state_4c70b2|63|13 1,0,0,0,0,0,0,0,0,0,0,0,0,0,0,1,
scooby_state_408e16|40|0 1,0,0,0,0,0,0,0,0,0,0,0,0,0,0,1,
scooby_state_419a83|28|22 1,0,0,0,0,0,0,0,0,0,0,0,0,0,0,1,
scooby_state_4c70fb|49|-13 1,0,0,0,0,0,0,0,0,0,0,0,0,0,0,1,
scooby_state_43f130|57|1 1,0,0,0,0,0,0,0,0,0,0,0,0,0,0,1,
scooby_state_43cf40|61|9 1,0,0,0,0,0,0,0,0,0,0,0,0,0,0,1,
scooby_state_41be37|26|-25 1,0,0,0,0,0,0,0,0,0,0,0,0,0,0,1,
scooby_state_40e049|57|-6 1,0,0,0,0,0,0,0,0,0,0,0,0,0,0,1,
scooby_state_457634|17|-46 1,0,0,0,0,0,0,0,0,0,0,0,0,0,0,1,
scooby_state_43cdc0|55|16 1,0,0,0,0,0,0,0,0,0,0,0,0,0,0,1,
scooby_state_41e3b0|14|4 1,0,0,0,0,0,0,0,0,0,0,0,0,0,0,1,
scooby_state_413080|2|0 1,0,0,0,0,0,0,0,0,0,0,0,0,0,0,1,
scooby_state_40a910|36|10 1,0,0,0,0,0,0,0,0,0,0,0,0,0,0,1,
scooby_state_40bf3d|60|59 1,0,0,0,0,0,0,0,0,0,0,0,0,0,0,1,
scooby_state_4520f8|3|-18 1,0,0,0,0,0,0,0,0,0,0,0,0,0,0,1,
scooby_state_404782|30|-12 1,0,0,0,0,0,0,0,0,0,0,0,0,0,0,1,
scooby_state_408c3c|44|1 1,0,0,0,0,0,0,0,0,0,0,0,0,0,0,1,
scooby_state_407fc8|63|61 1,0,0,0,0,0,0,0,0,0,0,0,0,0,0,1,
scooby_state_440c1c|48|22 1,0,0,0,0,0,0,0,0,0,0,0,0,0,0,1,
scooby_state_418aa3|45|0 0,1,0,0,0,0,0,0,0,0,0,0,0,0,0,1,
scooby_state_407742|29|23 0,1,0,0,0,0,0,0,0,0,0,0,0,0,0,1,
scooby_state_40b941|37|24 1,0,0,0,0,0,0,0,0,0,0,0,0,0,0,1,
scooby_state_40ac6f|49|30 1,0,0,0,0,0,0,0,0,0,0,0,0,0,0,1,
scooby_state_41baac|6|-57 1,0,0,0,0,0,0,0,0,0,0,0,0,0,0,1,
scooby_state_41e292|24|-27 1,0,0,0,0,0,0,0,0,0,0,0,0,0,0,1,
scooby_state_457618|44|1 1,0,0,0,0,0,0,0,0,0,0,0,0,0,0,1,
scooby_state_41e1f3|16|-7 1,0,0,0,0,0,0,0,0,0,0,0,0,0,0,1,
scooby_state_440959|37|-3 1,0,0,0,0,0,0,0,0,0,0,0,0,0,0,1,
scooby_state_406340|13|-15 1,0,0,0,0,0,0,0,0,0,0,0,0,0,0,1,
scooby_state_44e106|4|1 1,0,0,0,0,0,0,0,0,0,0,0,0,0,0,1,
scooby_state_41e2a1|54|19 1,0,0,0,0,0,0,0,0,0,0,0,0,0,0,1,
scooby_state_43f440|17|2 1,0,0,0,0,0,0,0,0,0,0,0,0,0,0,1,
scooby_state_41e0ba|31|-12 1,0,0,0,0,0,0,0,0,0,0,0,0,0,0,1,
scooby_state_40621b|6|1 0,0,0,1,0,0,0,0,0,0,0,0,0,0,0,1,
scooby_state_439744|29|19 1,0,0,0,0,0,0,0,0,0,0,0,0,0,0,1,
scooby_state_404970|37|0 1,0,0,0,0,0,0,0,0,0,0,0,0,0,0,1,
scooby_state_41e0ba|49|-3 1,0,0,0,0,0,0,0,0,0,0,0,0,0,0,1,
scooby_state_457b53|51|-8 1,0,0,0,0,0,0,0,0,0,0,0,0,0,0,1,
scooby_state_40a3cd|17|-29 1,0,0,0,0,0,0,0,0,0,0,0,0,0,0,1,
scooby_state_41e26c|0|-1 1,0,0,0,0,0,0,0,0,0,0,0,0,0,0,1,
scooby_state_45008a|19|0 1,0,0,0,0,0,0,0,0,0,0,0,0,0,0,1,
scooby_state_457618|30|16 1,0,0,0,0,0,0,0,0,0,0,0,0,0,0,1,
scooby_state_408755|29|27 1,0,0,0,0,0,0,0,0,0,0,0,0,0,0,1,
scooby_state_406544|19|3 1,0,0,0,0,0,0,0,0,0,0,0,0,0,0,1,
scooby_state_406481|18|5 1,0,0,0,0,0,0,0,0,0,0,0,0,0,0,1,
scooby_state_41c1e9|8|1 1,0,0,0,0,0,0,0,0,0,0,0,0,0,0,1,
scooby_state_40a4df|58|1 1,0,0,0,0,0,0,0,0,0,0,0,0,0,0,1,
scooby_state_43dfc3|63|55 1,0,0,0,0,0,0,0,0,0,0,0,0,0,0,1,
scooby_state_41c1e9|7|0 1,0,0,0,0,0,0,0,0,0,0,0,0,0,0,1,
scooby_state_41e2a1|36|-19 1,0,0,0,0,0,0,0,0,0,0,0,0,0,0,1,
scooby_state_405580|22|-40 1,0,0,0,0,0,0,0,0,0,0,0,0,0,0,1,
scooby_state_41e0f6|11|-2 1,0,0,0,0,0,0,0,0,0,0,0,0,0,0,1,
scooby_state_440948|18|0 1,0,0,0,0,0,0,0,0,0,0,0,0,0,0,1,
scooby_state_41d390|14|0 1,0,0,0,0,0,0,0,0,0,0,0,0,0,0,1,
scooby_state_40bdfa|55|16 1,0,0,0,0,0,0,0,0,0,0,0,0,0,0,1,
scooby_state_40ac04|48|20 1,0,0,0,0,0,0,0,0,0,0,0,0,0,0,1,
scooby_state_4526cb|27|17 1,0,0,0,0,0,0,0,0,0,0,0,0,0,0,1,
scooby_state_41bf04|12|-25 1,0,0,0,0,0,0,0,0,0,0,0,0,0,0,1,
scooby_state_4089c4|39|39 1,0,0,0,0,0,0,0,0,0,0,0,0,0,0,1,
scooby_state_441070|1|-8 1,0,0,0,0,0,0,0,0,0,0,0,0,0,0,1,
scooby_state_457b53|37|30 0,0,0,0,0,0,0,0,0,0,0,0,1,0,0,1,
scooby_state_48a676|10|-2 1,0,0,0,0,0,0,0,0,0,0,0,0,0,0,1,
scooby_state_40df18|43|-4 1,0,0,0,0,0,0,0,0,0,0,0,0,0,0,1,
scooby_state_408918|36|-13 1,0,0,0,0,0,0,0,0,0,0,0,0,0,0,1,
scooby_state_41e292|2|-11 1,0,0,0,0,0,0,0,0,0,0,0,0,0,0,1,
scooby_state_418a93|15|-3 1,0,0,0,0,0,0,0,0,0,0,0,0,0,0,1,
scooby_state_404e04|56|7 1,0,0,0,0,0,0,0,0,0,0,0,0,0,0,1,
scooby_state_41e256|33|23 1,0,0,0,0,0,0,0,0,0,0,0,0,0,0,1,
scooby_state_452004|45|-1 1,0,0,0,0,0,0,0,0,0,0,0,0,0,0,1,
scooby_state_40e049|33|0 0,1,0,0,0,0,0,0,0,0,0,0,0,0,0,1,
scooby_state_40b201|8|-53 1,0,0,0,0,0,0,0,0,0,0,0,0,0,0,1,
scooby_state_40b1fb|16|-36 1,0,0,0,0,0,0,0,0,0,0,0,0,0,0,1,
scooby_state_40df30|8|0 1,0,0,0,0,0,0,0,0,0,0,0,0,0,0,1,
scooby_state_41e0ba|33|12 1,0,0,0,0,0,0,0,0,0,0,0,0,0,0,1,
scooby_state_40a9c1|39|-23 0,0,0,1,0,0,0,0,0,0,0,0,0,0,0,1,
scooby_state_418aa3|58|8 0,0,0,0,0,0,0,1,0,0,0,0,0,0,0,1,
scooby_state_43b841|33|2 0,0,0,0,0,0,0,0,1,0,0,0,0,0,0,1,
scooby_state_40ab04|44|18 0,1,0,0,0,0,0,0,0,0,0,0,0,0,0,1,
scooby_state_418a93|3|-10 1,0,0,0,0,0,0,0,0,0,0,0,0,0,0,1,
scooby_state_419b42|61|1 1,0,0,0,0,0,0,0,0,0,0,0,0,0,0,1,
scooby_state_40b340|13|2 1,0,0,0,0,0,0,0,0,0,0,0,0,0,0,1,
scooby_state_4130da|22|-8 1,0,0,0,0,0,0,0,0,0,0,0,0,0,0,1,
scooby_state_4c70a2|50|1 1,0,0,0,0,0,0,0,0,0,0,0,0,0,0,1,
scooby_state_43fdc3|55|52 1,0,0,0,0,0,0,0,0,0,0,0,0,0,0,1,
scooby_state_438a84|42|-21 1,0,0,0,0,0,0,0,0,0,0,0,0,0,0,1,
scooby_state_406596|52|-9 1,0,0,0,0,0,0,0,0,0,0,0,0,0,0,1,
scooby_state_43ec00|48|41 1,0,0,0,0,0,0,0,0,0,0,0,0,0,0,1,
scooby_state_4070c2|3|-30 1,0,0,0,0,0,0,0,0,0,0,0,0,0,0,1,
scooby_state_44097a|40|1 1,0,0,0,0,0,0,0,0,0,0,0,0,0,0,1,
scooby_state_41e0a7|46|15 1,0,0,0,0,0,0,0,0,0,0,0,0,0,0,1,
scooby_state_4575f2|47|22 0,0,0,0,0,0,0,0,0,0,0,0,0,1,0,1,
scooby_state_457618|42|-14 1,0,0,0,0,0,0,0,0,0,0,0,0,0,0,1,
scooby_state_41bef0|33|26 1,0,0,0,0,0,0,0,0,0,0,0,0,0,0,1,
scooby_state_40bf4f|61|31 1,0,0,0,0,0,0,0,0,0,0,0,0,0,0,1,
scooby_state_49ce03|56|1 1,0,0,0,0,0,0,0,0,0,0,0,0,0,0,1,
scooby_state_41a346|20|1 1,0,0,0,0,0,0,0,0,0,0,0,0,0,0,1,
scooby_state_43a4c4|19|15 1,0,0,0,0,0,0,0,0,0,0,0,0,0,0,1,
scooby_state_41c439|36|1 1,0,0,0,0,0,0,0,0,0,0,0,0,0,0,1,
scooby_state_440c82|50|14 1,0,0,0,0,0,0,0,0,0,0,0,0,0,0,1,
scooby_state_407782|30|17 1,0,0,0,0,0,0,0,0,0,0,0,0,0,0,1,
scooby_state_4059c3|39|21 1,0,0,0,0,0,0,0,0,0,0,0,0,0,0,1,
scooby_state_40b284|10|-52 1,0,0,0,0,0,0,0,0,0,0,0,0,0,0,1,
scooby_state_40b242|9|-54 1,0,0,0,0,0,0,0,0,0,0,0,0,0,0,1,
scooby_state_43cbc1|47|2 1,0,0,0,0,0,0,0,0,0,0,0,0,0,0,1,
scooby_state_4575f2|58|15 1,0,0,0,0,0,0,0,0,0,0,0,0,0,0,1,
scooby_state_40bd42|53|27 1,0,0,0,0,0,0,0,0,0,0,0,0,0,0,1,
scooby_state_43e13a|60|1 0,1,0,0,0,0,0,0,0,0,0,0,0,0,0,1,
scooby_state_4389b0|38|-9 1,0,0,0,0,0,0,0,0,0,0,0,0,0,0,1,

scooby_action_0_deg_dist 0,356,0,0,0,0,0,0,0,0,0,0,0,0,0,0,
scooby_action_-6_deg_dist 0,276,7,0,3,0,0,0,0,0,0,0,0,0,0,0,
scooby_action_3_deg_dist 0,2549,563,0,693,0,534,0,0,0,0,0,0,0,0,0,
scooby_action_32_deg_dist 0,210,3,0,1,0,0,0,0,0,0,0,0,0,0,0,
scooby_action_4_deg_dist 0,275,14,0,12,0,0,0,0,0,0,0,0,0,0,0,
scooby_action_1_deg_dist 0,8631,2999,0,5979,0,30922,0,0,0,0,0,0,0,0,0,
scooby_action_30_deg_dist 0,270,4,0,2,0,0,0,0,0,0,0,0,0,0,0,
scooby_action_5_deg_dist 0,255,35,0,2,0,0,0,0,0,0,0,0,0,0,0,
scooby_action_10_deg_dist 0,264,9,0,0,0,0,0,0,0,0,0,0,0,0,0,
scooby_action_-1_deg_dist 0,310,2,0,4,0,0,0,0,0,0,0,0,0,0,0,
scooby_action_23_deg_dist 0,323,31,0,6,0,0,0,0,0,0,0,0,0,0,0,
scooby_action_11_deg_dist 0,353,17,0,6,0,0,0,0,0,0,0,0,0,0,0,
scooby_action_-3_deg_dist 0,327,27,0,35,0,48,0,0,0,0,0,0,0,0,0,
scooby_action_12_deg_dist 0,225,0,0,0,0,0,0,0,0,0,0,0,0,0,0,
scooby_action_22_deg_dist 0,408,30,0,25,0,1,0,0,0,0,0,0,0,0,0,

scooby_track_called 57046
scooby_track_same_address 12614
scooby_track_evict 44176

scooby_reward_demand_called 57046
scooby_reward_demand_pt_not_found 30494
scooby_reward_demand_pt_found 26552
scooby_reward_demand_pt_found_total 26552
scooby_reward_demand_has_reward 5822
scooby_reward_train_called 21534
scooby_reward_assign_reward_called 44285
scooby_reward_no_pref 355
scooby_reward_incorrect 21179
scooby_reward_correct_untimely 19671
scooby_reward_correct_timely 1059
scooby_reward_out_of_bounds 2021
scooby_reward_tracker_hit 0

scooby_reward_none_low_bw 355
scooby_reward_none_high_bw 0
scooby_reward_incorrect_low_bw 21179
scooby_reward_incorrect_high_bw 0
scooby_reward_correct_untimely_low_bw 19671
scooby_reward_correct_untimely_high_bw 0
scooby_reward_correct_timely_low_bw 1059
scooby_reward_correct_timely_high_bw 0
scooby_reward_out_of_bounds_low_bw 2021
scooby_reward_out_of_bounds_high_bw 0
scooby_reward_tracker_hit_low_bw 0
scooby_reward_tracker_hit_high_bw 0

scooby_reward_1 0,17164,17695,947,986,0,
scooby_reward_3 0,1689,1562,105,235,0,
scooby_reward_4 0,252,11,4,21,0,
scooby_reward_5 0,246,4,0,33,0,
scooby_reward_10 0,199,4,0,58,0,
scooby_reward_11 0,231,37,1,59,0,
scooby_reward_12 0,159,9,0,48,0,
scooby_reward_22 0,156,115,0,168,0,
scooby_reward_23 0,172,67,2,112,0,
scooby_reward_30 0,88,36,0,138,0,
scooby_reward_32 0,92,0,0,115,0,
scooby_reward_-1 0,228,25,0,7,0,
scooby_reward_-3 0,280,95,0,17,0,
scooby_reward_-6 0,223,11,0,24,0,
scooby_reward_0 355,0,0,0,0,0,

scooby_train_called 44175
scooby_train_compute_reward 21534

scooby_register_fill_called 11516
scooby_register_fill_set 5462
scooby_register_fill_set_total 5462

scooby_register_prefetch_hit_called 116981
scooby_register_prefetch_hit_set 48536
scooby_register_prefetch_hit_set_total 48536

scooby_pref_issue_scooby 156673

learning_engine_featurewise.action.called 57046
learning_engine_featurewise.action.explore 88
learning_engine_featurewise.action.exploit 56958
learning_engine_featurewise.action.fallback 686
learning_engine_featurewise.action.dyn_fallback_saved_bw 0
learning_engine_featurewise.action.dyn_fallback_saved_bw_acc 718
learning_engine_featurewise.action.index_1_explored 7
learning_engine_featurewise.action.index_1_exploited 48524
learning_engine_featurewise.action.index_3_explored 9
learning_engine_featurewise.action.index_3_exploited 4330
learning_engine_featurewise.action.index_4_explored 7
learning_engine_featurewise.action.index_4_exploited 294
learning_engine_featurewise.action.index_5_explored 5
learning_engine_featurewise.action.index_5_exploited 287
learning_engine_featurewise.action.index_10_explored 9
learning_engine_featurewise.action.index_10_exploited 264
learning_engine_featurewise.action.index_11_explored 7
learning_engine_featurewise.action.index_11_exploited 369
learning_engine_featurewise.action.index_12_explored 3
learning_engine_featurewise.action.index_12_exploited 222
learning_engine_featurewise.action.index_22_explored 6
learning_engine_featurewise.action.index_22_exploited 458
learning_engine_featurewise.action.index_23_explored 5
learning_engine_featurewise.action.index_23_exploited 355
learning_engine_featurewise.action.index_30_explored 6
learning_engine_featurewise.action.index_30_exploited 270
learning_engine_featurewise.action.index_32_explored 9
learning_engine_featurewise.action.index_32_exploited 205
learning_engine_featurewise.action.index_-1_explored 5
learning_engine_featurewise.action.index_-1_exploited 311
learning_engine_featurewise.action.index_-3_explored 3
learning_engine_featurewise.action.index_-3_exploited 434
learning_engine_featurewise.action.index_-6_explored 3
learning_engine_featurewise.action.index_-6_exploited 283
learning_engine_featurewise.action.index_0_explored 4
learning_engine_featurewise.action.index_0_exploited 352
learning_engine_featurewise.learn.called 44175
learning_engine_featurewise.learn.su_skip_PC 0
learning_engine_featurewise.learn.su_skip_PC_Delta 0

learning_engine_featurewise.q_value_histogram.bucket_0 0
learning_engine_featurewise.q_value_histogram.bucket_1 0
learning_engine_featurewise.q_value_histogram.bucket_2 1195
learning_engine_featurewise.q_value_histogram.bucket_3 2076
learning_engine_featurewise.q_value_histogram.bucket_4 34054
learning_engine_featurewise.q_value_histogram.bucket_5 18576
learning_engine_featurewise.q_value_histogram.bucket_6 1057
learning_engine_featurewise.q_value_histogram.bucket_7 0

learning_engine_featurewise.consensus.total 56958
learning_engine_featurewise.consensus.feature_align_PC 45832
learning_engine_featurewise.consensus.feature_align_PC_ratio 0.80
learning_engine_featurewise.consensus.feature_align_PC_Delta 47999
learning_engine_featurewise.consensus.feature_align_PC_Delta_ratio 0.84
learning_engine_featurewise.consensus.feature_align_all 36873
learning_engine_featurewise.consensus.feature_align_all_ratio 0.65

learning_engine_featurewise.feature_PC_min_weight 1000000.00000000
learning_engine_featurewise.feature_PC_max_weight 0.00000000
learning_engine_featurewise.feature_PC_Delta_min_weight 1000000.00000000
learning_engine_featurewise.feature_PC_Delta_max_weight 0.00000000
unique_pcs 2404
unique_pages 1642
unique_trigger_pcs 601
total_bitmaps_seen 0
unique_bitmaps_seen 0

scooby_bw_epochs 108628
scooby_bw_level_0 107633
scooby_bw_level_1 694
scooby_bw_level_2 161
scooby_bw_level_3 140

scooby_ipc_epochs 0
scooby_ipc_level_0 0
scooby_ipc_level_1 0
scooby_ipc_level_2 0
scooby_ipc_level_3 0

scooby_cache_acc_epochs 26997
scooby_cache_acc_level_0 23504
scooby_cache_acc_level_1 1214
scooby_cache_acc_level_2 933
scooby_cache_acc_level_3 235
scooby_cache_acc_level_4 112
scooby_cache_acc_level_5 572
scooby_cache_acc_level_6 88
scooby_cache_acc_level_7 76
scooby_cache_acc_level_8 36
scooby_cache_acc_level_9 227

Channel_0_RQ_row_buffer_hit 5295
Channel_0_RQ_row_buffer_miss 8276
Channel_0_WQ_row_buffer_hit 0
Channel_0_WQ_row_buffer_miss 0
Channel_0_WQ_full 0
Channel_0_dbus_congested 5563

avg_congested_cycle 8

DRAM_bw_pochs 108628
DRAM_bw_level_0 107633
DRAM_bw_level_1 694
DRAM_bw_level_2 161
DRAM_bw_level_3 140
