Original cmd-> /cluster/home/vlnitu/CA-Lab4-24-vlnitu/Pythia/bin/perceptron-no-multi-no-ship-1core --warmup_instructions=1000000 --simulation_instructions=10000000 --config=/cluster/home/vlnitu/CA-Lab4-24-vlnitu/Pythia/config/nopref.ini --mail-type=BEGIN,END  -traces /cluster/home/vlnitu/CA-Lab4-24-vlnitu/Pythia/traces/450.soplex-247B.champsimtrace.xz
*************************************************
   ChampSim Multicore Out-of-Order Simulator
   Last compiled: Nov 19 2024 20:10:11
*************************************************
parsing config file: /cluster/home/vlnitu/CA-Lab4-24-vlnitu/Pythia/config/nopref.ini
unable to parse section: , name: mail-type, value: BEGIN,END

trace_0 /cluster/home/vlnitu/CA-Lab4-24-vlnitu/Pythia/traces/450.soplex-247B.champsimtrace.xz
adding L2C_PREFETCHER: NONE
Initialize SHIP state
warmup_instructions 1000000
simulation_instructions 10000000
champsim_seed 223
measure_ipc 0
measure_ipc_epoch 1000
measure_dram_bw 1
measure_dram_bw_epoch 256
measure_cache_acc 1
measure_cache_acc_epoch 1024
l1d_perfect 0
l2c_perfect 0
llc_perfect 0
l1d_semi_perfect 0
l2c_semi_perfect 0
llc_semi_perfect 0
semi_perfect_cache_page_buffer_size 64

num_cpus 1
cpu_freq 4000
dram_io_freq 2400
page_size 4096
block_size 64
max_read_per_cycle 8
max_fill_per_cycle 1
dram_channels 1
log2_dram_channels 0
dram_ranks 1
dram_banks 8
dram_rows 65536
dram_columns 128
dram_row_size 8
dram_size 4096
dram_pages 1048576

fetch_width 6
decode_width 6
exec_width 4
lq_width 2
sq_width 2
retire_width 4
scheduler_size 128
branch_mispredict_penalty 20
rob_size 256
lq_size 72
sq_size 56
num_instr_destinations_sparc 4
num_instr_destinations 2
num_instr_sources 4

itlb_set 16
itlb_way 8
itlb_rq_size 16
itlb_wq_size 16
itlb_pq_size 0
itlb_mshr_size 8
itlb_latency 1

dtlb_set 16
dtlb_way 4
dtlb_rq_size 16
dtlb_wq_size 16
dtlb_pq_size 0
dtlb_mshr_size 8
dtlb_latency 1

stlb_set 128
stlb_way 12
stlb_rq_size 32
stlb_wq_size 32
stlb_pq_size 0
stlb_mshr_size 16
stlb_latency 8

l1i_size 32
l1i_set 64
l1i_way 8
l1i_rq_size 64
l1i_wq_size 64
l1i_pq_size 8
l1i_mshr_size 8
l1i_latency 1

l1d_size 32
l1d_set 64
l1d_way 8
l1d_rq_size 64
l1d_wq_size 64
l1d_pq_size 8
l1d_mshr_size 16
l1d_latency 4

l2c_size 256
l2c_set 512
l2c_way 8
l2c_rq_size 32
l2c_wq_size 32
l2c_pq_size 32
l2c_mshr_size 32
l2c_latency 10

llc_size 2048
llc_set 2048
llc_way 16
llc_rq_size 32
llc_wq_size 32
llc_pq_size 32
llc_mshr_size 64
llc_latency 20

dram_channel_width 8
dram_wq_size 64
dram_rq_size 64
tRP 15
tRCD 15
tCAS 12.5
dram_dbus_turn_around_time 30
dram_write_high_wm 56
dram_write_low_wm 48
min_dram_writes_per_switch 16
dram_mtps 2400
dram_dbus_return_time 13


Heartbeat CPU  0 instructions:    1000002 cycles:     760979 heartbeat IPC: 1.31410 cumulative IPC: 1.31410 (Simulation time: 0 hr 0 min 2 sec) 

Warmup complete CPU  0 instructions:    1000002 cycles:     760979 (Simulation time: 0 hr 0 min 2 sec) 

Heartbeat CPU  0 instructions:    2000001 cycles:    3247488 heartbeat IPC: 0.40217 cumulative IPC: 0.40217 (Simulation time: 0 hr 0 min 3 sec) 
Heartbeat CPU  0 instructions:    3000001 cycles:    5789850 heartbeat IPC: 0.39334 cumulative IPC: 0.39770 (Simulation time: 0 hr 0 min 5 sec) 
Heartbeat CPU  0 instructions:    4000000 cycles:    7456908 heartbeat IPC: 0.59986 cumulative IPC: 0.44803 (Simulation time: 0 hr 0 min 7 sec) 
Heartbeat CPU  0 instructions:    5000000 cycles:   10687670 heartbeat IPC: 0.30952 cumulative IPC: 0.40295 (Simulation time: 0 hr 0 min 9 sec) 
Heartbeat CPU  0 instructions:    6000001 cycles:   15165673 heartbeat IPC: 0.22331 cumulative IPC: 0.34711 (Simulation time: 0 hr 0 min 11 sec) 
Heartbeat CPU  0 instructions:    7000000 cycles:   19018985 heartbeat IPC: 0.25952 cumulative IPC: 0.32862 (Simulation time: 0 hr 0 min 14 sec) 
Heartbeat CPU  0 instructions:    8000000 cycles:   22283980 heartbeat IPC: 0.30628 cumulative IPC: 0.32523 (Simulation time: 0 hr 0 min 16 sec) 
Heartbeat CPU  0 instructions:    9000000 cycles:   25441878 heartbeat IPC: 0.31667 cumulative IPC: 0.32414 (Simulation time: 0 hr 0 min 18 sec) 
Heartbeat CPU  0 instructions:   10000000 cycles:   28839614 heartbeat IPC: 0.29431 cumulative IPC: 0.32053 (Simulation time: 0 hr 0 min 20 sec) 
Heartbeat CPU  0 instructions:   11000000 cycles:   33059447 heartbeat IPC: 0.23698 cumulative IPC: 0.30961 (Simulation time: 0 hr 0 min 22 sec) 
Finished CPU 0 instructions: 10000002 cycles: 32298469 cumulative IPC: 0.30961 (Simulation time: 0 hr 0 min 22 sec) 

ChampSim completed all CPUs

[ROI Statistics]
Core_0_instructions 10000002
Core_0_cycles 32298469
Core_0_IPC 0.30961

Core_0_branch_prediction_accuracy 95.11314
Core_0_branch_MPKI 7.58470
Core_0_average_ROB_occupancy_at_mispredict 89.55376

Core_0_L1D_total_access 2658200
Core_0_L1D_total_hit 2064718
Core_0_L1D_total_miss 593482
Core_0_L1D_loads 1836672
Core_0_L1D_load_hit 1392785
Core_0_L1D_load_miss 443887
Core_0_L1D_RFOs 821528
Core_0_L1D_RFO_hit 671933
Core_0_L1D_RFO_miss 149595
Core_0_L1D_prefetches 0
Core_0_L1D_prefetch_hit 0
Core_0_L1D_prefetch_miss 0
Core_0_L1D_writebacks 0
Core_0_L1D_writeback_hit 0
Core_0_L1D_writeback_miss 0
Core_0_L1D_prefetch_requested 0
Core_0_L1D_prefetch_dropped 0
Core_0_L1D_prefetch_issued 0
Core_0_L1D_prefetch_filled 0
Core_0_L1D_prefetch_useful 0
Core_0_L1D_prefetch_useless 0
Core_0_L1D_prefetch_late 0
Core_0_L1D_average_miss_latency 130.95961

Core_0_L1D_rq_access 3578266
Core_0_L1D_rq_forward 0
Core_0_L1D_rq_merged 1536282
Core_0_L1D_rq_to_cache 2041984
Core_0_L1D_rq_full 0

Core_0_L1D_wq_access 1065967
Core_0_L1D_wq_forward 0
Core_0_L1D_wq_merged 2363
Core_0_L1D_wq_to_cache 1063604
Core_0_L1D_wq_full 314508

Core_0_L1D_pq_access 0
Core_0_L1D_pq_forward 0
Core_0_L1D_pq_merged 0
Core_0_L1D_pq_to_cache 0
Core_0_L1D_pq_full 0

Core_0_L1D_acc_epochs 31885
Core_0_L1D_acc_level_0 31885
Core_0_L1D_acc_level_1 0
Core_0_L1D_acc_level_2 0
Core_0_L1D_acc_level_3 0
Core_0_L1D_acc_level_4 0
Core_0_L1D_acc_level_5 0
Core_0_L1D_acc_level_6 0
Core_0_L1D_acc_level_7 0
Core_0_L1D_acc_level_8 0
Core_0_L1D_acc_level_9 0

Core_0_L1I_total_access 2341317
Core_0_L1I_total_hit 2340935
Core_0_L1I_total_miss 382
Core_0_L1I_loads 2341317
Core_0_L1I_load_hit 2340935
Core_0_L1I_load_miss 382
Core_0_L1I_RFOs 0
Core_0_L1I_RFO_hit 0
Core_0_L1I_RFO_miss 0
Core_0_L1I_prefetches 0
Core_0_L1I_prefetch_hit 0
Core_0_L1I_prefetch_miss 0
Core_0_L1I_writebacks 0
Core_0_L1I_writeback_hit 0
Core_0_L1I_writeback_miss 0
Core_0_L1I_prefetch_requested 0
Core_0_L1I_prefetch_dropped 0
Core_0_L1I_prefetch_issued 0
Core_0_L1I_prefetch_filled 0
Core_0_L1I_prefetch_useful 0
Core_0_L1I_prefetch_useless 0
Core_0_L1I_prefetch_late 0
Core_0_L1I_average_miss_latency 250.57068

Core_0_L1I_rq_access 9999918
Core_0_L1I_rq_forward 0
Core_0_L1I_rq_merged 7658386
Core_0_L1I_rq_to_cache 2341532
Core_0_L1I_rq_full 0

Core_0_L1I_wq_access 0
Core_0_L1I_wq_forward 0
Core_0_L1I_wq_merged 0
Core_0_L1I_wq_to_cache 0
Core_0_L1I_wq_full 0

Core_0_L1I_pq_access 0
Core_0_L1I_pq_forward 0
Core_0_L1I_pq_merged 0
Core_0_L1I_pq_to_cache 0
Core_0_L1I_pq_full 0

Core_0_L1I_acc_epochs 31885
Core_0_L1I_acc_level_0 31885
Core_0_L1I_acc_level_1 0
Core_0_L1I_acc_level_2 0
Core_0_L1I_acc_level_3 0
Core_0_L1I_acc_level_4 0
Core_0_L1I_acc_level_5 0
Core_0_L1I_acc_level_6 0
Core_0_L1I_acc_level_7 0
Core_0_L1I_acc_level_8 0
Core_0_L1I_acc_level_9 0

Core_0_L2C_total_access 897552
Core_0_L2C_total_hit 465742
Core_0_L2C_total_miss 431810
Core_0_L2C_loads 444124
Core_0_L2C_load_hit 128992
Core_0_L2C_load_miss 315132
Core_0_L2C_RFOs 149582
Core_0_L2C_RFO_hit 32954
Core_0_L2C_RFO_miss 116628
Core_0_L2C_prefetches 0
Core_0_L2C_prefetch_hit 0
Core_0_L2C_prefetch_miss 0
Core_0_L2C_writebacks 303846
Core_0_L2C_writeback_hit 303796
Core_0_L2C_writeback_miss 50
Core_0_L2C_prefetch_requested 0
Core_0_L2C_prefetch_dropped 0
Core_0_L2C_prefetch_issued 0
Core_0_L2C_prefetch_filled 0
Core_0_L2C_prefetch_useful 0
Core_0_L2C_prefetch_useless 0
Core_0_L2C_prefetch_late 0
Core_0_L2C_average_miss_latency 160.43255

Core_0_L2C_rq_access 593867
Core_0_L2C_rq_forward 0
Core_0_L2C_rq_merged 0
Core_0_L2C_rq_to_cache 593709
Core_0_L2C_rq_full 0

Core_0_L2C_wq_access 303846
Core_0_L2C_wq_forward 158
Core_0_L2C_wq_merged 0
Core_0_L2C_wq_to_cache 303846
Core_0_L2C_wq_full 0

Core_0_L2C_pq_access 0
Core_0_L2C_pq_forward 0
Core_0_L2C_pq_merged 0
Core_0_L2C_pq_to_cache 0
Core_0_L2C_pq_full 0

Core_0_L2C_acc_epochs 31885
Core_0_L2C_acc_level_0 31885
Core_0_L2C_acc_level_1 0
Core_0_L2C_acc_level_2 0
Core_0_L2C_acc_level_3 0
Core_0_L2C_acc_level_4 0
Core_0_L2C_acc_level_5 0
Core_0_L2C_acc_level_6 0
Core_0_L2C_acc_level_7 0
Core_0_L2C_acc_level_8 0
Core_0_L2C_acc_level_9 0

Core_0_LLC_total_access 645727
Core_0_LLC_total_hit 401235
Core_0_LLC_total_miss 244492
Core_0_LLC_loads 315127
Core_0_LLC_load_hit 152261
Core_0_LLC_load_miss 162866
Core_0_LLC_RFOs 116627
Core_0_LLC_RFO_hit 42887
Core_0_LLC_RFO_miss 73740
Core_0_LLC_prefetches 0
Core_0_LLC_prefetch_hit 0
Core_0_LLC_prefetch_miss 0
Core_0_LLC_writebacks 213973
Core_0_LLC_writeback_hit 206087
Core_0_LLC_writeback_miss 7886
Core_0_LLC_prefetch_requested 0
Core_0_LLC_prefetch_dropped 0
Core_0_LLC_prefetch_issued 0
Core_0_LLC_prefetch_filled 0
Core_0_LLC_prefetch_useful 0
Core_0_LLC_prefetch_useless 0
Core_0_LLC_prefetch_late 0
Core_0_LLC_average_miss_latency 229.31780

Core_0_LLC_rq_access 431763
Core_0_LLC_rq_forward 0
Core_0_LLC_rq_merged 0
Core_0_LLC_rq_to_cache 431757
Core_0_LLC_rq_full 0

Core_0_LLC_wq_access 213973
Core_0_LLC_wq_forward 6
Core_0_LLC_wq_merged 0
Core_0_LLC_wq_to_cache 213973
Core_0_LLC_wq_full 0

Core_0_LLC_pq_access 0
Core_0_LLC_pq_forward 0
Core_0_LLC_pq_merged 0
Core_0_LLC_pq_to_cache 0
Core_0_LLC_pq_full 0

Core_0_LLC_acc_epochs 32285
Core_0_LLC_acc_level_0 32285
Core_0_LLC_acc_level_1 0
Core_0_LLC_acc_level_2 0
Core_0_LLC_acc_level_3 0
Core_0_LLC_acc_level_4 0
Core_0_LLC_acc_level_5 0
Core_0_LLC_acc_level_6 0
Core_0_LLC_acc_level_7 0
Core_0_LLC_acc_level_8 0
Core_0_LLC_acc_level_9 0

Core_0_major_page_fault 0
Core_0_minor_page_fault 4399

Channel_0_RQ_row_buffer_hit 44033
Channel_0_RQ_row_buffer_miss 192554
Channel_0_WQ_row_buffer_hit 46077
Channel_0_WQ_row_buffer_miss 56036
Channel_0_WQ_full 0
Channel_0_dbus_congested 143206

avg_congested_cycle 11

DRAM_bw_pochs 129139
DRAM_bw_level_0 99033
DRAM_bw_level_1 23629
DRAM_bw_level_2 4453
DRAM_bw_level_3 2024
