Original cmd-> /cluster/home/vlnitu/CA-Lab4-24-vlnitu/Pythia/bin/perceptron-no-multi-no-ship-1core --warmup_instructions=1000000 --simulation_instructions=10000000 --l2c_prefetcher_types=scooby --config=/cluster/home/vlnitu/CA-Lab4-24-vlnitu/Pythia/config/pythia.ini --mail-type=BEGIN,END  -traces /cluster/home/vlnitu/CA-Lab4-24-vlnitu/Pythia/traces/456.hmmer-327B.champsimtrace.xz
*************************************************
   ChampSim Multicore Out-of-Order Simulator
   Last compiled: Nov 19 2024 20:10:11
*************************************************
parsing config file: /cluster/home/vlnitu/CA-Lab4-24-vlnitu/Pythia/config/pythia.ini
unable to parse section: , name: mail-type, value: BEGIN,END

trace_0 /cluster/home/vlnitu/CA-Lab4-24-vlnitu/Pythia/traces/456.hmmer-327B.champsimtrace.xz
adding L2C_PREFETCHER: Scooby
Initialize SHIP state
warmup_instructions 1000000
simulation_instructions 10000000
champsim_seed 222
measure_ipc 0
measure_ipc_epoch 1000
measure_dram_bw 1
measure_dram_bw_epoch 256
measure_cache_acc 1
measure_cache_acc_epoch 1024
l1d_perfect 0
l2c_perfect 0
llc_perfect 0
l1d_semi_perfect 0
l2c_semi_perfect 0
llc_semi_perfect 0
semi_perfect_cache_page_buffer_size 64

num_cpus 1
cpu_freq 4000
dram_io_freq 2400
page_size 4096
block_size 64
max_read_per_cycle 8
max_fill_per_cycle 1
dram_channels 1
log2_dram_channels 0
dram_ranks 1
dram_banks 8
dram_rows 65536
dram_columns 128
dram_row_size 8
dram_size 4096
dram_pages 1048576

fetch_width 6
decode_width 6
exec_width 4
lq_width 2
sq_width 2
retire_width 4
scheduler_size 128
branch_mispredict_penalty 20
rob_size 256
lq_size 72
sq_size 56
num_instr_destinations_sparc 4
num_instr_destinations 2
num_instr_sources 4

itlb_set 16
itlb_way 8
itlb_rq_size 16
itlb_wq_size 16
itlb_pq_size 0
itlb_mshr_size 8
itlb_latency 1

dtlb_set 16
dtlb_way 4
dtlb_rq_size 16
dtlb_wq_size 16
dtlb_pq_size 0
dtlb_mshr_size 8
dtlb_latency 1

stlb_set 128
stlb_way 12
stlb_rq_size 32
stlb_wq_size 32
stlb_pq_size 0
stlb_mshr_size 16
stlb_latency 8

l1i_size 32
l1i_set 64
l1i_way 8
l1i_rq_size 64
l1i_wq_size 64
l1i_pq_size 8
l1i_mshr_size 8
l1i_latency 1

l1d_size 32
l1d_set 64
l1d_way 8
l1d_rq_size 64
l1d_wq_size 64
l1d_pq_size 8
l1d_mshr_size 16
l1d_latency 4

l2c_size 256
l2c_set 512
l2c_way 8
l2c_rq_size 32
l2c_wq_size 32
l2c_pq_size 32
l2c_mshr_size 32
l2c_latency 10

llc_size 2048
llc_set 2048
llc_way 16
llc_rq_size 32
llc_wq_size 32
llc_pq_size 32
llc_mshr_size 64
llc_latency 20

dram_channel_width 8
dram_wq_size 64
dram_rq_size 64
tRP 15
tRCD 15
tCAS 12.5
dram_dbus_turn_around_time 30
dram_write_high_wm 56
dram_write_low_wm 48
min_dram_writes_per_switch 16
dram_mtps 2400
dram_dbus_return_time 13

scooby_alpha 0.0065088
scooby_gamma 0.556301
scooby_epsilon 0.00182284
scooby_state_num_bits 10
scooby_max_states 1024
scooby_seed 200
scooby_policy EGreedy
scooby_learning_type SARSA
scooby_actions 1,3,4,5,10,11,12,22,23,30,32,-1,-3,-6,0,
scooby_max_actions 15
scooby_pt_size 256
scooby_st_size 64
scooby_max_pcs 5
scooby_max_offsets 5
scooby_max_deltas 5
scooby_reward_none -4
scooby_reward_incorrect -8
scooby_reward_correct_untimely 12
scooby_reward_correct_timely 20
scooby_brain_zero_init 0
scooby_enable_reward_all 0
scooby_enable_track_multiple 0
scooby_enable_reward_out_of_bounds 1
scooby_reward_out_of_bounds -12
scooby_state_type 1
scooby_state_hash_type 11
scooby_access_debug 0
scooby_print_access_debug 0
scooby_print_access_debug_pc deadbeef
scooby_print_access_debug_pc_count 0
scooby_print_trace 0
scooby_enable_state_action_stats 1
scooby_enable_reward_tracker_hit 0
scooby_reward_tracker_hit -2
scooby_enable_featurewise_engine 1
scooby_pref_degree 1
scooby_enable_dyn_degree 1
scooby_max_to_avg_q_thresholds 0.5,1,2,
scooby_dyn_degrees 1,2,4,4,
scooby_multi_deg_select_type 2
scooby_last_pref_offset_conf_thresholds 1,3,8,
scooby_dyn_degrees_type2 1,2,4,6,
scooby_action_tracker_size 2
scooby_high_bw_thresh 4
scooby_enable_hbw_reward 1
scooby_reward_hbw_correct_timely 20
scooby_reward_hbw_correct_untimely 12
scooby_reward_hbw_incorrect -14
scooby_reward_hbw_none -2
scooby_reward_hbw_out_of_bounds -12
scooby_reward_hbw_tracker_hit -2
scooby_last_pref_offset_conf_thresholds_hbw 1,3,8,
scooby_dyn_degrees_type2_hbw 1,2,4,6,

le_enable_trace 0
le_trace_interval 0
le_trace_file_name 
le_trace_state 0
le_enable_score_plot 0
le_plot_file_name 
le_plot_actions 
le_enable_action_trace 0
le_action_trace_interval 0
le_action_trace_name 
le_enable_action_plot 0

le_featurewise_active_features PC, PC_Delta
le_featurewise_num_tilings 3,3,
le_featurewise_num_tiles 128,128,
le_featurewise_hash_types 2,2,
le_featurewise_enable_tiling_offset 1,1,
le_featurewise_max_q_thresh 0.5
le_featurewise_enable_action_fallback 1
le_featurewise_feature_weights 1,1,
le_featurewise_enable_dynamic_weight 0
le_featurewise_weight_gradient 0.001
le_featurewise_disable_adjust_weight_all_features_align 1
le_featurewise_selective_update 0
le_featurewise_pooling_type 2
le_featurewise_enable_dyn_action_fallback 1
le_featurewise_bw_acc_check_level 1
le_featurewise_acc_thresh 2
le_featurewise_enable_trace 0
le_featurewise_trace_feature_type 0
le_featurewise_trace_feature 
le_featurewise_trace_interval 0
le_featurewise_trace_record_count 0
le_featurewise_trace_file_name 
le_featurewise_enable_score_plot 0
le_featurewise_plot_actions 
le_featurewise_plot_file_name 


Heartbeat CPU  0 instructions:    1000000 cycles:     589610 heartbeat IPC: 1.69604 cumulative IPC: 1.69604 (Simulation time: 0 hr 0 min 2 sec) 

Warmup complete CPU  0 instructions:    1000004 cycles:     589611 (Simulation time: 0 hr 0 min 2 sec) 

Heartbeat CPU  0 instructions:    2000003 cycles:    1490576 heartbeat IPC: 1.10992 cumulative IPC: 1.10992 (Simulation time: 0 hr 0 min 3 sec) 
Heartbeat CPU  0 instructions:    3000001 cycles:    2380269 heartbeat IPC: 1.12398 cumulative IPC: 1.11691 (Simulation time: 0 hr 0 min 5 sec) 
Heartbeat CPU  0 instructions:    4000000 cycles:    3269376 heartbeat IPC: 1.12472 cumulative IPC: 1.11950 (Simulation time: 0 hr 0 min 7 sec) 
Heartbeat CPU  0 instructions:    5000000 cycles:    4161792 heartbeat IPC: 1.12055 cumulative IPC: 1.11976 (Simulation time: 0 hr 0 min 8 sec) 
Heartbeat CPU  0 instructions:    6000001 cycles:    5072194 heartbeat IPC: 1.09842 cumulative IPC: 1.11543 (Simulation time: 0 hr 0 min 10 sec) 
Heartbeat CPU  0 instructions:    7000001 cycles:    5944586 heartbeat IPC: 1.14627 cumulative IPC: 1.12045 (Simulation time: 0 hr 0 min 12 sec) 
Heartbeat CPU  0 instructions:    8000000 cycles:    6837853 heartbeat IPC: 1.11949 cumulative IPC: 1.12031 (Simulation time: 0 hr 0 min 13 sec) 
Heartbeat CPU  0 instructions:    9000001 cycles:    7749602 heartbeat IPC: 1.09679 cumulative IPC: 1.11732 (Simulation time: 0 hr 0 min 15 sec) 
Heartbeat CPU  0 instructions:   10000003 cycles:    8635554 heartbeat IPC: 1.12873 cumulative IPC: 1.11858 (Simulation time: 0 hr 0 min 17 sec) 
Heartbeat CPU  0 instructions:   11000000 cycles:    9549550 heartbeat IPC: 1.09409 cumulative IPC: 1.11608 (Simulation time: 0 hr 0 min 18 sec) 
Finished CPU 0 instructions: 10000000 cycles: 8959948 cumulative IPC: 1.11608 (Simulation time: 0 hr 0 min 18 sec) 

ChampSim completed all CPUs

[ROI Statistics]
Core_0_instructions 10000000
Core_0_cycles 8959948
Core_0_IPC 1.11608

Core_0_branch_prediction_accuracy 99.78028
Core_0_branch_MPKI 0.09360
Core_0_average_ROB_occupancy_at_mispredict 255.68376

Core_0_L1D_total_access 3577332
Core_0_L1D_total_hit 3529950
Core_0_L1D_total_miss 47382
Core_0_L1D_loads 2829232
Core_0_L1D_load_hit 2808481
Core_0_L1D_load_miss 20751
Core_0_L1D_RFOs 748100
Core_0_L1D_RFO_hit 721469
Core_0_L1D_RFO_miss 26631
Core_0_L1D_prefetches 0
Core_0_L1D_prefetch_hit 0
Core_0_L1D_prefetch_miss 0
Core_0_L1D_writebacks 0
Core_0_L1D_writeback_hit 0
Core_0_L1D_writeback_miss 0
Core_0_L1D_prefetch_requested 0
Core_0_L1D_prefetch_dropped 0
Core_0_L1D_prefetch_issued 0
Core_0_L1D_prefetch_filled 0
Core_0_L1D_prefetch_useful 0
Core_0_L1D_prefetch_useless 0
Core_0_L1D_prefetch_late 0
Core_0_L1D_average_miss_latency 107.58961

Core_0_L1D_rq_access 4104665
Core_0_L1D_rq_forward 0
Core_0_L1D_rq_merged 1253713
Core_0_L1D_rq_to_cache 2850952
Core_0_L1D_rq_full 0

Core_0_L1D_wq_access 1408367
Core_0_L1D_wq_forward 0
Core_0_L1D_wq_merged 567753
Core_0_L1D_wq_to_cache 840614
Core_0_L1D_wq_full 0

Core_0_L1D_pq_access 0
Core_0_L1D_pq_forward 0
Core_0_L1D_pq_merged 0
Core_0_L1D_pq_to_cache 0
Core_0_L1D_pq_full 0

Core_0_L1D_acc_epochs 9286
Core_0_L1D_acc_level_0 9286
Core_0_L1D_acc_level_1 0
Core_0_L1D_acc_level_2 0
Core_0_L1D_acc_level_3 0
Core_0_L1D_acc_level_4 0
Core_0_L1D_acc_level_5 0
Core_0_L1D_acc_level_6 0
Core_0_L1D_acc_level_7 0
Core_0_L1D_acc_level_8 0
Core_0_L1D_acc_level_9 0

Core_0_L1I_total_access 2620023
Core_0_L1I_total_hit 2620023
Core_0_L1I_total_miss 0
Core_0_L1I_loads 2620023
Core_0_L1I_load_hit 2620023
Core_0_L1I_load_miss 0
Core_0_L1I_RFOs 0
Core_0_L1I_RFO_hit 0
Core_0_L1I_RFO_miss 0
Core_0_L1I_prefetches 0
Core_0_L1I_prefetch_hit 0
Core_0_L1I_prefetch_miss 0
Core_0_L1I_writebacks 0
Core_0_L1I_writeback_hit 0
Core_0_L1I_writeback_miss 0
Core_0_L1I_prefetch_requested 0
Core_0_L1I_prefetch_dropped 0
Core_0_L1I_prefetch_issued 0
Core_0_L1I_prefetch_filled 0
Core_0_L1I_prefetch_useful 0
Core_0_L1I_prefetch_useless 0
Core_0_L1I_prefetch_late 0
Core_0_L1I_average_miss_latency -nan

Core_0_L1I_rq_access 10000004
Core_0_L1I_rq_forward 0
Core_0_L1I_rq_merged 7379981
Core_0_L1I_rq_to_cache 2620023
Core_0_L1I_rq_full 0

Core_0_L1I_wq_access 0
Core_0_L1I_wq_forward 0
Core_0_L1I_wq_merged 0
Core_0_L1I_wq_to_cache 0
Core_0_L1I_wq_full 0

Core_0_L1I_pq_access 0
Core_0_L1I_pq_forward 0
Core_0_L1I_pq_merged 0
Core_0_L1I_pq_to_cache 0
Core_0_L1I_pq_full 0

Core_0_L1I_acc_epochs 9286
Core_0_L1I_acc_level_0 9286
Core_0_L1I_acc_level_1 0
Core_0_L1I_acc_level_2 0
Core_0_L1I_acc_level_3 0
Core_0_L1I_acc_level_4 0
Core_0_L1I_acc_level_5 0
Core_0_L1I_acc_level_6 0
Core_0_L1I_acc_level_7 0
Core_0_L1I_acc_level_8 0
Core_0_L1I_acc_level_9 0

Core_0_L2C_total_access 155680
Core_0_L2C_total_hit 127418
Core_0_L2C_total_miss 28262
Core_0_L2C_loads 20720
Core_0_L2C_load_hit 20639
Core_0_L2C_load_miss 81
Core_0_L2C_RFOs 26631
Core_0_L2C_RFO_hit 68
Core_0_L2C_RFO_miss 26563
Core_0_L2C_prefetches 81725
Core_0_L2C_prefetch_hit 80107
Core_0_L2C_prefetch_miss 1618
Core_0_L2C_writebacks 26604
Core_0_L2C_writeback_hit 26604
Core_0_L2C_writeback_miss 0
Core_0_L2C_prefetch_requested 90831
Core_0_L2C_prefetch_dropped 0
Core_0_L2C_prefetch_issued 90831
Core_0_L2C_prefetch_filled 2508
Core_0_L2C_prefetch_useful 2273
Core_0_L2C_prefetch_useless 167
Core_0_L2C_prefetch_late 3
Core_0_L2C_average_miss_latency 160.86374

Core_0_L2C_rq_access 47382
Core_0_L2C_rq_forward 0
Core_0_L2C_rq_merged 0
Core_0_L2C_rq_to_cache 47351
Core_0_L2C_rq_full 0

Core_0_L2C_wq_access 26604
Core_0_L2C_wq_forward 32
Core_0_L2C_wq_merged 0
Core_0_L2C_wq_to_cache 26604
Core_0_L2C_wq_full 0

Core_0_L2C_pq_access 90831
Core_0_L2C_pq_forward 0
Core_0_L2C_pq_merged 215
Core_0_L2C_pq_to_cache 90615
Core_0_L2C_pq_full 0

Core_0_L2C_acc_epochs 9286
Core_0_L2C_acc_level_0 8107
Core_0_L2C_acc_level_1 221
Core_0_L2C_acc_level_2 190
Core_0_L2C_acc_level_3 56
Core_0_L2C_acc_level_4 64
Core_0_L2C_acc_level_5 170
Core_0_L2C_acc_level_6 32
Core_0_L2C_acc_level_7 61
Core_0_L2C_acc_level_8 67
Core_0_L2C_acc_level_9 318

Core_0_LLC_total_access 54302
Core_0_LLC_total_hit 27315
Core_0_LLC_total_miss 26987
Core_0_LLC_loads 81
Core_0_LLC_load_hit 75
Core_0_LLC_load_miss 6
Core_0_LLC_RFOs 26560
Core_0_LLC_RFO_hit 0
Core_0_LLC_RFO_miss 26560
Core_0_LLC_prefetches 1621
Core_0_LLC_prefetch_hit 1200
Core_0_LLC_prefetch_miss 421
Core_0_LLC_writebacks 26040
Core_0_LLC_writeback_hit 26040
Core_0_LLC_writeback_miss 0
Core_0_LLC_prefetch_requested 0
Core_0_LLC_prefetch_dropped 0
Core_0_LLC_prefetch_issued 0
Core_0_LLC_prefetch_filled 1311
Core_0_LLC_prefetch_useful 27
Core_0_LLC_prefetch_useless 31
Core_0_LLC_prefetch_late 0
Core_0_LLC_average_miss_latency 136.91196

Core_0_LLC_rq_access 26641
Core_0_LLC_rq_forward 0
Core_0_LLC_rq_merged 0
Core_0_LLC_rq_to_cache 26641
Core_0_LLC_rq_full 0

Core_0_LLC_wq_access 26040
Core_0_LLC_wq_forward 0
Core_0_LLC_wq_merged 0
Core_0_LLC_wq_to_cache 26040
Core_0_LLC_wq_full 0

Core_0_LLC_pq_access 2511
Core_0_LLC_pq_forward 0
Core_0_LLC_pq_merged 0
Core_0_LLC_pq_to_cache 2511
Core_0_LLC_pq_full 0

Core_0_LLC_acc_epochs 9326
Core_0_LLC_acc_level_0 9312
Core_0_LLC_acc_level_1 6
Core_0_LLC_acc_level_2 5
Core_0_LLC_acc_level_3 0
Core_0_LLC_acc_level_4 0
Core_0_LLC_acc_level_5 3
Core_0_LLC_acc_level_6 0
Core_0_LLC_acc_level_7 0
Core_0_LLC_acc_level_8 0
Core_0_LLC_acc_level_9 0

Core_0_major_page_fault 0
Core_0_minor_page_fault 490

scooby_st_lookup 23138
scooby_st_hit 22952
scooby_st_evict 122
scooby_st_insert 186
scooby_st_streaming 0

scooby_predict_called 23138
scooby_predict_out_of_bounds 356
scooby_predict_action_1 22651
scooby_predict_issue_action_1 16507
scooby_predict_hit_action_1 6144
scooby_predict_out_of_bounds_action_1 352
scooby_predict_action_3 11
scooby_predict_issue_action_3 7
scooby_predict_hit_action_3 4
scooby_predict_out_of_bounds_action_3 0
scooby_predict_action_4 7
scooby_predict_issue_action_4 3
scooby_predict_hit_action_4 4
scooby_predict_out_of_bounds_action_4 0
scooby_predict_action_5 7
scooby_predict_issue_action_5 5
scooby_predict_hit_action_5 2
scooby_predict_out_of_bounds_action_5 0
scooby_predict_action_10 12
scooby_predict_issue_action_10 5
scooby_predict_hit_action_10 7
scooby_predict_out_of_bounds_action_10 1
scooby_predict_action_11 9
scooby_predict_issue_action_11 4
scooby_predict_hit_action_11 5
scooby_predict_out_of_bounds_action_11 1
scooby_predict_action_12 6
scooby_predict_issue_action_12 3
scooby_predict_hit_action_12 3
scooby_predict_out_of_bounds_action_12 0
scooby_predict_action_22 9
scooby_predict_issue_action_22 5
scooby_predict_hit_action_22 4
scooby_predict_out_of_bounds_action_22 0
scooby_predict_action_23 7
scooby_predict_issue_action_23 5
scooby_predict_hit_action_23 2
scooby_predict_out_of_bounds_action_23 0
scooby_predict_action_30 8
scooby_predict_issue_action_30 2
scooby_predict_hit_action_30 6
scooby_predict_out_of_bounds_action_30 2
scooby_predict_action_32 7
scooby_predict_issue_action_32 5
scooby_predict_hit_action_32 2
scooby_predict_out_of_bounds_action_32 0
scooby_predict_action_-1 3
scooby_predict_issue_action_-1 2
scooby_predict_hit_action_-1 1
scooby_predict_out_of_bounds_action_-1 0
scooby_predict_action_-3 3
scooby_predict_issue_action_-3 1
scooby_predict_hit_action_-3 2
scooby_predict_out_of_bounds_action_-3 0
scooby_predict_action_-6 6
scooby_predict_issue_action_-6 3
scooby_predict_hit_action_-6 3
scooby_predict_out_of_bounds_action_-6 0
scooby_predict_action_0 36
scooby_predict_issue_action_0 0
scooby_predict_hit_action_0 0
scooby_predict_out_of_bounds_action_0 0
scooby_predict_multi_deg_called 15978
scooby_predict_predicted 90831
scooby_predict_multi_deg 74274
scooby_predict_multi_deg_2 15712
scooby_predict_multi_deg_3 15241
scooby_predict_multi_deg_4 14976
scooby_predict_multi_deg_5 14310
scooby_predict_multi_deg_6 14035
scooby_predict_multi_deg_7 0
scooby_predict_multi_deg_8 0
scooby_predict_multi_deg_9 0
scooby_predict_multi_deg_10 0
scooby_predict_multi_deg_11 0
scooby_predict_multi_deg_12 0
scooby_predict_multi_deg_13 0
scooby_predict_multi_deg_14 0
scooby_predict_multi_deg_15 0
scooby_predict_multi_deg_16 0

scooby_selected_deg_1 579
scooby_selected_deg_2 199
scooby_selected_deg_3 0
scooby_selected_deg_4 452
scooby_selected_deg_5 0
scooby_selected_deg_6 15327
scooby_selected_deg_7 0
scooby_selected_deg_8 0
scooby_selected_deg_9 0
scooby_selected_deg_10 0
scooby_selected_deg_11 0
scooby_selected_deg_12 0
scooby_selected_deg_13 0
scooby_selected_deg_14 0
scooby_selected_deg_15 0
scooby_selected_deg_16 0

scooby_state_40a7dd|21|1 177,0,0,0,0,0,0,0,0,0,0,0,0,0,0,177,
scooby_state_40a7dd|19|1 177,0,0,0,0,0,0,0,0,0,0,0,0,0,0,177,
scooby_state_40a7dd|20|1 175,0,0,0,0,0,0,1,0,0,0,0,0,0,0,176,
scooby_state_40a860|60|1 173,0,0,0,0,0,0,0,0,0,0,0,0,0,0,173,
scooby_state_40a860|59|1 172,0,0,0,0,0,0,0,0,0,0,0,0,0,0,172,
scooby_state_40a860|20|1 171,0,0,0,0,0,0,0,0,0,0,0,0,0,0,171,
scooby_state_40a860|61|1 170,0,0,0,0,0,0,0,0,0,0,0,0,0,0,170,
scooby_state_40a860|19|1 168,0,0,0,0,0,0,0,0,0,0,0,0,0,0,168,
scooby_state_40a7dd|24|1 162,0,0,0,0,0,0,0,0,0,0,0,0,0,0,162,
scooby_state_40a7dd|22|1 162,0,0,0,0,0,0,0,0,0,0,0,0,0,0,162,
scooby_state_40a7dd|23|1 159,1,0,1,0,0,0,0,0,0,0,0,0,0,0,161,
scooby_state_40a860|22|1 158,0,0,0,0,0,0,0,1,0,0,0,0,0,0,159,
scooby_state_40a7dd|56|1 158,0,0,0,0,0,0,0,0,0,0,0,0,0,0,158,
scooby_state_40a7dd|25|1 157,0,0,0,0,0,0,0,0,0,1,0,0,0,0,158,
scooby_state_40a860|26|1 157,0,0,0,0,0,0,0,0,0,0,0,0,0,0,157,
scooby_state_40a860|21|1 157,0,0,0,0,0,0,0,0,0,0,0,0,0,0,157,
scooby_state_40a860|23|1 157,0,0,0,0,0,0,0,0,0,0,0,0,0,0,157,
scooby_state_40a860|27|1 157,0,0,0,0,0,0,0,0,0,0,0,0,0,0,157,
scooby_state_40a7dd|58|1 155,0,1,0,0,0,0,0,0,0,0,0,0,0,0,156,
scooby_state_40a7dd|57|1 156,0,0,0,0,0,0,0,0,0,0,0,0,0,0,156,
scooby_state_40a7dd|18|1 155,0,0,0,1,0,0,0,0,0,0,0,0,0,0,156,
scooby_state_40a860|24|1 156,0,0,0,0,0,0,0,0,0,0,0,0,0,0,156,
scooby_state_40a860|28|1 155,0,0,0,0,0,0,0,0,0,0,0,0,0,0,155,
scooby_state_40a860|25|1 154,0,0,0,0,0,0,0,0,0,0,0,0,0,0,154,
scooby_state_40a7dd|60|1 151,0,0,0,0,0,0,0,0,0,0,0,0,0,0,151,
scooby_state_40a860|1|1 150,0,0,0,0,0,0,0,0,0,0,0,0,0,0,150,
scooby_state_40a7dd|61|1 149,0,0,0,0,0,0,0,0,0,0,0,0,0,1,150,
scooby_state_40a860|5|1 148,0,0,0,0,0,0,0,1,0,0,0,0,0,0,149,
scooby_state_40a860|18|1 149,0,0,0,0,0,0,0,0,0,0,0,0,0,0,149,
scooby_state_40a860|63|1 149,0,0,0,0,0,0,0,0,0,0,0,0,0,0,149,
scooby_state_40a860|62|1 147,0,0,0,0,0,0,0,0,1,0,0,0,0,0,148,
scooby_state_40a860|2|1 147,0,0,0,0,0,0,0,0,0,0,0,0,0,0,147,
scooby_state_40a7dd|62|1 147,0,0,0,0,0,0,0,0,0,0,0,0,0,0,147,
scooby_state_40a860|11|1 146,0,0,0,0,0,0,0,0,0,0,0,0,0,0,146,
scooby_state_40a860|12|1 145,0,0,0,0,0,0,0,0,0,0,0,0,0,0,145,
scooby_state_40a860|13|1 144,0,0,0,0,0,0,0,0,0,0,0,0,0,0,144,
scooby_state_40a860|30|1 143,0,0,0,0,0,0,0,0,0,0,0,0,0,0,143,
scooby_state_40a7dd|16|1 142,0,0,0,0,0,0,0,0,0,0,0,0,0,0,142,
scooby_state_40a860|29|1 141,0,0,0,0,0,1,0,0,0,0,0,0,0,0,142,
scooby_state_40a7dd|15|1 142,0,0,0,0,0,0,0,0,0,0,0,0,0,0,142,
scooby_state_40a860|31|1 141,0,0,0,0,0,0,0,0,0,1,0,0,0,0,142,
scooby_state_40a7dd|1|1 142,0,0,0,0,0,0,0,0,0,0,0,0,0,0,142,
scooby_state_40a7dd|26|1 142,0,0,0,0,0,0,0,0,0,0,0,0,0,0,142,
scooby_state_40a7dd|28|1 142,0,0,0,0,0,0,0,0,0,0,0,0,0,0,142,
scooby_state_40a7dd|17|1 140,0,0,0,0,0,0,0,0,0,0,0,0,1,0,141,
scooby_state_40a860|4|1 141,0,0,0,0,0,0,0,0,0,0,0,0,0,0,141,
scooby_state_40a7dd|27|1 141,0,0,0,0,0,0,0,0,0,0,0,0,0,0,141,
scooby_state_40a7dd|63|1 141,0,0,0,0,0,0,0,0,0,0,0,0,0,0,141,
scooby_state_40a7dd|10|1 140,0,0,0,0,0,0,0,0,0,0,0,0,0,0,140,
scooby_state_40a860|3|1 139,0,0,0,0,1,0,0,0,0,0,0,0,0,0,140,
scooby_state_40a7dd|2|1 138,0,0,0,0,0,0,0,0,0,1,0,0,0,0,139,
scooby_state_40a860|8|1 138,0,0,0,0,0,0,0,0,0,0,0,0,0,0,138,
scooby_state_40a7dd|30|1 138,0,0,0,0,0,0,0,0,0,0,0,0,0,0,138,
scooby_state_40a7dd|31|1 138,0,0,0,0,0,0,0,0,0,0,0,0,0,0,138,
scooby_state_40a7dd|9|1 138,0,0,0,0,0,0,0,0,0,0,0,0,0,0,138,
scooby_state_40a7dd|5|1 138,0,0,0,0,0,0,0,0,0,0,0,0,0,0,138,
scooby_state_40a860|6|1 137,0,0,0,0,0,0,0,0,0,0,0,0,0,0,137,
scooby_state_40a860|7|1 135,0,0,1,0,0,0,0,0,0,0,0,0,0,0,136,
scooby_state_40a860|56|1 135,0,0,0,0,0,0,0,0,0,0,0,0,0,0,135,
scooby_state_40a7dd|32|1 134,0,0,0,0,0,0,0,0,0,0,0,0,0,0,134,
scooby_state_40a860|57|1 134,0,0,0,0,0,0,0,0,0,0,0,0,0,0,134,
scooby_state_40a7dd|6|1 134,0,0,0,0,0,0,0,0,0,0,0,0,0,0,134,
scooby_state_40a7dd|8|1 134,0,0,0,0,0,0,0,0,0,0,0,0,0,0,134,
scooby_state_40a7dd|59|1 133,0,0,0,0,1,0,0,0,0,0,0,0,0,0,134,
scooby_state_40a7dd|52|1 132,1,0,0,0,1,0,0,0,0,0,0,0,0,0,134,
scooby_state_40a7dd|54|1 134,0,0,0,0,0,0,0,0,0,0,0,0,0,0,134,
scooby_state_40a7dd|53|1 134,0,0,0,0,0,0,0,0,0,0,0,0,0,0,134,
scooby_state_40a7dd|7|1 132,0,0,0,0,0,0,0,0,0,0,0,0,0,0,132,
scooby_state_40a860|35|1 132,0,0,0,0,0,0,0,0,0,0,0,0,0,0,132,
scooby_state_40a860|58|1 132,0,0,0,0,0,0,0,0,0,0,0,0,0,0,132,
scooby_state_40a860|34|1 132,0,0,0,0,0,0,0,0,0,0,0,0,0,0,132,
scooby_state_40a860|33|1 132,0,0,0,0,0,0,0,0,0,0,0,0,0,0,132,
scooby_state_40a7dd|55|1 130,0,0,0,1,0,0,0,0,0,0,0,0,0,0,131,
scooby_state_40a860|9|1 131,0,0,0,0,0,0,0,0,0,0,0,0,0,0,131,
scooby_state_40a7dd|4|1 130,0,0,0,0,0,0,0,0,0,0,0,0,0,0,130,
scooby_state_40a7dd|3|1 129,0,0,0,0,0,0,0,0,0,0,0,0,0,0,129,
scooby_state_40a7dd|29|1 129,0,0,0,0,0,0,0,0,0,0,0,0,0,0,129,
scooby_state_40a7dd|14|1 127,0,0,0,0,0,0,0,0,0,0,0,0,0,0,127,
scooby_state_40a860|32|1 127,0,0,0,0,0,0,0,0,0,0,0,0,0,0,127,
scooby_state_40a860|55|1 124,0,0,0,0,0,0,0,0,0,0,0,0,0,0,124,
scooby_state_40a7dd|51|1 117,0,1,0,0,0,0,0,0,0,0,0,0,0,0,118,
scooby_state_40a860|52|1 118,0,0,0,0,0,0,0,0,0,0,0,0,0,0,118,
scooby_state_40a860|51|1 118,0,0,0,0,0,0,0,0,0,0,0,0,0,0,118,
scooby_state_40a860|53|1 118,0,0,0,0,0,0,0,0,0,0,0,0,0,0,118,
scooby_state_40a860|10|1 117,0,0,0,0,0,0,0,0,0,0,0,0,0,0,117,
scooby_state_40a7dd|11|1 116,0,0,0,0,0,0,0,0,0,0,0,0,0,0,116,
scooby_state_40a7dd|13|1 116,0,0,0,0,0,0,0,0,0,0,0,0,0,0,116,
scooby_state_40a7dd|12|1 116,0,0,0,0,0,0,0,0,0,0,0,0,0,0,116,
scooby_state_40a860|17|1 115,0,0,0,0,0,0,0,0,0,0,0,0,0,0,115,
scooby_state_40a7dd|48|1 113,0,0,0,0,0,0,0,0,1,0,0,0,0,0,114,
scooby_state_40a860|54|1 114,0,0,0,0,0,0,0,0,0,0,0,0,0,0,114,
scooby_state_40a7dd|50|1 112,0,0,0,0,0,0,0,0,0,0,1,0,0,0,113,
scooby_state_40a7dd|49|1 113,0,0,0,0,0,0,0,0,0,0,0,0,0,0,113,
scooby_state_40a8f8|21|1 109,0,0,0,0,0,0,0,0,0,0,0,0,0,0,109,
scooby_state_40a8f8|20|1 107,0,0,0,0,0,0,0,0,0,0,0,0,0,0,107,
scooby_state_40a8f8|19|1 107,0,0,0,0,0,0,0,0,0,0,0,0,0,0,107,
scooby_state_40a78d|19|1 99,0,0,0,0,0,0,0,0,0,0,0,1,0,0,100,
scooby_state_40a860|16|1 100,0,0,0,0,0,0,0,0,0,0,0,0,0,0,100,
scooby_state_40a860|15|1 99,0,0,0,0,0,0,0,0,0,1,0,0,0,0,100,
scooby_state_40a78d|20|1 99,0,0,0,0,0,0,0,0,0,0,0,0,0,0,99,
scooby_state_40a860|36|1 97,0,0,1,1,0,0,0,0,0,0,0,0,0,0,99,
scooby_state_40a860|14|1 99,0,0,0,0,0,0,0,0,0,0,0,0,0,0,99,
scooby_state_40a860|48|1 97,0,0,0,0,0,0,0,0,0,0,0,0,0,0,97,
scooby_state_40a860|49|1 97,0,0,0,0,0,0,0,0,0,0,0,0,0,0,97,
scooby_state_40a860|50|1 96,0,0,0,0,0,0,0,0,0,0,0,0,0,0,96,
scooby_state_40a7dd|46|1 94,0,0,0,0,0,0,0,0,0,0,0,0,0,0,94,
scooby_state_40a7dd|47|1 94,0,0,0,0,0,0,0,0,0,0,0,0,0,0,94,
scooby_state_40a7dd|45|1 93,0,0,0,0,0,0,0,0,0,0,0,0,0,0,93,
scooby_state_40a77d|21|1 87,0,0,0,0,0,0,0,0,0,0,0,0,0,0,87,
scooby_state_40a77d|20|1 87,0,0,0,0,0,0,0,0,0,0,0,0,0,0,87,
scooby_state_40a77d|19|1 87,0,0,0,0,0,0,0,0,0,0,0,0,0,0,87,
scooby_state_40a860|46|1 85,0,0,0,0,0,0,0,0,0,0,0,0,0,0,85,
scooby_state_40a860|44|1 85,0,0,0,0,0,0,0,0,0,0,0,0,0,0,85,
scooby_state_40a860|45|1 84,0,0,0,0,1,0,0,0,0,0,0,0,0,0,85,
scooby_state_40a7dd|43|1 84,0,0,0,0,0,0,0,0,0,0,0,0,0,0,84,
scooby_state_40a860|47|1 84,0,0,0,0,0,0,0,0,0,0,0,0,0,0,84,
scooby_state_40a7dd|42|1 84,0,0,0,0,0,0,0,0,0,0,0,0,0,0,84,
scooby_state_40a7dd|44|1 82,0,0,0,1,0,0,0,0,0,0,0,0,0,0,83,
scooby_state_40a7dd|34|1 83,0,0,0,0,0,0,0,0,0,0,0,0,0,0,83,
scooby_state_40a7dd|35|1 83,0,0,0,0,0,0,0,0,0,0,0,0,0,0,83,
scooby_state_40a860|38|1 82,0,0,0,0,0,0,0,0,0,0,0,1,0,0,83,
scooby_state_40a860|37|1 83,0,0,0,0,0,0,0,0,0,0,0,0,0,0,83,
scooby_state_40a860|39|1 82,0,0,0,0,0,0,0,0,0,0,0,0,0,0,82,
scooby_state_40a7dd|33|1 81,0,0,0,0,0,0,0,0,0,0,0,0,0,0,81,
scooby_state_40a7dd|36|1 81,0,0,0,0,0,0,0,0,0,0,0,0,0,0,81,
scooby_state_40a7dd|41|1 79,0,0,0,0,0,0,0,0,0,0,0,0,0,0,79,
scooby_state_40a860|41|1 72,0,0,0,0,0,0,0,0,0,0,0,0,0,0,72,
scooby_state_40a860|40|1 72,0,0,0,0,0,0,0,0,0,0,0,0,0,0,72,
scooby_state_40a860|42|1 72,0,0,0,0,0,0,0,0,0,0,0,0,0,0,72,
scooby_state_40a7dd|38|1 70,0,0,0,0,0,0,0,0,0,0,0,0,0,0,70,
scooby_state_40a7dd|39|1 70,0,0,0,0,0,0,0,0,0,0,0,0,0,0,70,
scooby_state_40a7dd|37|1 69,0,0,0,0,0,0,0,0,0,0,0,0,0,0,69,
scooby_state_40a77d|13|1 64,0,0,0,0,0,0,0,0,0,0,0,0,0,0,64,
scooby_state_40a8f8|13|1 64,0,0,0,0,0,0,0,0,0,0,0,0,0,0,64,
scooby_state_40a7c4|11|1 62,0,0,0,0,0,0,0,0,0,0,0,0,0,0,62,
scooby_state_40a74a|8|3 62,0,0,0,0,0,0,0,0,0,0,0,0,0,0,62,
scooby_state_40a77d|12|1 61,1,0,0,0,0,0,0,0,0,0,0,0,0,0,62,
scooby_state_40a7c4|12|1 61,0,0,0,0,0,0,0,0,0,0,0,0,0,0,61,
scooby_state_40a7dd|40|1 61,0,0,0,0,0,0,0,0,0,0,0,0,0,0,61,
scooby_state_40a74a|7|3 60,0,0,0,0,0,0,0,0,0,0,0,0,0,0,60,
scooby_state_40a7f6|13|1 59,0,0,0,0,0,0,0,0,0,0,0,0,0,0,59,
scooby_state_40a78d|13|1 56,0,0,0,0,0,0,0,0,0,0,0,0,0,0,56,
scooby_state_40a7f6|11|1 54,0,0,0,0,0,0,0,0,0,0,0,0,0,0,54,
scooby_state_40a7f6|12|1 54,0,0,0,0,0,0,0,0,0,0,0,0,0,0,54,
scooby_state_40a860|43|1 53,0,0,0,0,0,0,0,0,0,0,0,0,0,0,53,
scooby_state_40a78d|12|1 52,0,0,0,0,0,0,0,0,0,0,0,0,0,0,52,
scooby_state_40a78d|11|1 51,0,0,0,0,0,0,0,0,0,0,0,0,0,0,51,
scooby_state_40a74a|9|3 45,0,0,0,0,0,0,0,0,0,0,0,0,0,0,45,
scooby_state_40a860|0|-63 41,0,0,0,0,0,0,0,0,0,0,0,0,0,0,41,
scooby_state_40a8f8|18|5 34,0,0,0,0,0,0,1,0,0,0,0,0,0,0,35,
scooby_state_40a7dd|0|-63 32,0,0,0,0,0,0,0,0,0,0,0,0,0,0,32,
scooby_state_40a78d|18|5 31,0,0,0,0,0,0,0,0,0,0,0,0,0,0,31,
scooby_state_40a73a|5|-5 30,0,0,0,0,0,0,0,0,0,0,0,0,0,0,30,
scooby_state_40a881|21|0 28,0,0,0,0,0,0,0,0,0,0,0,0,0,0,28,
scooby_state_40a77d|22|1 27,0,0,0,0,0,0,0,0,0,0,0,0,0,0,27,
scooby_state_40a77d|18|5 27,0,0,0,0,0,0,0,0,0,0,0,0,0,0,27,
scooby_state_40a7f6|10|2 27,0,0,0,0,0,0,0,0,0,0,0,0,0,0,27,
scooby_state_40a8f8|23|2 26,0,0,0,0,0,0,0,0,0,0,0,0,0,0,26,
scooby_state_40a7af|20|1 26,0,0,0,0,0,0,0,0,0,0,0,0,0,0,26,
scooby_state_40a7f6|10|1 26,0,0,0,0,0,0,0,0,0,0,0,0,0,0,26,
scooby_state_40a7af|21|1 26,0,0,0,0,0,0,0,0,0,0,0,0,0,0,26,
scooby_state_40a78d|10|1 25,0,0,0,0,0,0,0,0,0,0,0,0,0,0,25,
scooby_state_40a74a|9|4 24,0,0,0,0,0,0,0,0,0,0,0,0,0,0,24,
scooby_state_40a7af|19|1 23,0,0,0,0,0,0,0,0,0,0,0,0,0,0,23,
scooby_state_40a77d|10|2 22,0,0,0,0,0,0,0,0,0,0,0,0,0,0,22,
scooby_state_40a7c4|10|2 22,0,0,0,0,0,0,0,0,0,0,0,0,0,0,22,
scooby_state_40a7dd|0|-10 21,0,0,0,0,0,0,0,0,0,0,0,0,0,0,21,
scooby_state_40a7f6|8|3 21,0,0,0,0,0,0,0,0,0,0,0,0,0,0,21,
scooby_state_40a72b|21|0 21,0,0,0,0,0,0,0,0,0,0,0,0,0,0,21,
scooby_state_40a77d|18|1 21,0,0,0,0,0,0,0,0,0,0,0,0,0,0,21,
scooby_state_40a841|23|3 21,0,0,0,0,0,0,0,0,0,0,0,0,0,0,21,
scooby_state_40a73a|4|-6 21,0,0,0,0,0,0,0,0,0,0,0,0,0,0,21,
scooby_state_40a7c4|10|1 20,0,0,0,0,0,0,0,0,0,0,0,0,0,0,20,
scooby_state_40a77d|11|1 20,0,0,0,0,0,0,0,0,0,0,0,0,0,0,20,
scooby_state_40a8f8|18|1 20,0,0,0,0,0,0,0,0,0,0,0,0,0,0,20,
scooby_state_40a77d|23|2 19,0,0,0,0,0,0,0,0,0,0,0,0,0,0,19,
scooby_state_40a78d|18|1 19,0,0,0,0,0,0,0,0,0,0,0,0,0,0,19,
scooby_state_40a860|0|-13 19,0,0,0,0,0,0,0,0,0,0,0,0,0,0,19,
scooby_state_40a8f8|22|1 19,0,0,0,0,0,0,0,0,0,0,0,0,0,0,19,
scooby_state_40a72b|19|0 1,0,0,2,4,3,2,6,0,0,0,0,0,0,0,18,
scooby_state_40a72b|23|0 8,0,0,0,0,0,0,0,0,0,0,0,0,1,9,18,
scooby_state_40a7c4|8|3 17,0,0,0,0,0,0,0,0,0,0,0,0,0,0,17,
scooby_state_40a72b|18|0 13,0,3,1,0,0,0,0,0,0,0,0,0,0,0,17,
scooby_state_40a77d|11|3 17,0,0,0,0,0,0,0,0,0,0,0,0,0,0,17,
scooby_state_40a841|25|1 17,0,0,0,0,0,0,0,0,0,0,0,0,0,0,17,
scooby_state_40a7af|12|1 16,0,0,0,0,0,0,0,0,0,0,0,0,0,0,16,
scooby_state_40a77d|24|1 16,0,0,0,0,0,0,0,0,0,0,0,0,0,0,16,
scooby_state_40a7af|13|1 16,0,0,0,0,0,0,0,0,0,0,0,0,0,0,16,
scooby_state_40a73a|4|-4 16,0,0,0,0,0,0,0,0,0,0,0,0,0,0,16,
scooby_state_40a72b|25|0 0,0,0,0,0,0,0,0,0,0,0,0,0,0,16,16,
scooby_state_40a7dd|13|-19 16,0,0,0,0,0,0,0,0,0,0,0,0,0,0,16,
scooby_state_40a846|19|1 16,0,0,0,0,0,0,0,0,0,0,0,0,0,0,16,
scooby_state_40a78d|10|2 16,0,0,0,0,0,0,0,0,0,0,0,0,0,0,16,
scooby_state_40a7f6|5|-8 16,0,0,0,0,0,0,0,0,0,0,0,0,0,0,16,
scooby_state_40a74a|8|4 15,0,0,0,0,0,0,0,0,0,0,0,0,0,0,15,
scooby_state_40a72b|20|0 0,0,0,0,0,0,0,0,3,7,3,2,0,0,0,15,
scooby_state_40a77d|23|1 15,0,0,0,0,0,0,0,0,0,0,0,0,0,0,15,
scooby_state_40a841|22|2 15,0,0,0,0,0,0,0,0,0,0,0,0,0,0,15,
scooby_state_40a7af|11|1 14,0,0,0,0,0,0,0,0,1,0,0,0,0,0,15,
scooby_state_40a7af|5|0 15,0,0,0,0,0,0,0,0,0,0,0,0,0,0,15,
scooby_state_40a846|20|1 15,0,0,0,0,0,0,0,0,0,0,0,0,0,0,15,
scooby_state_40a77d|10|3 15,0,0,0,0,0,0,0,0,0,0,0,0,0,0,15,
scooby_state_40a78d|10|3 15,0,0,0,0,0,0,0,0,0,0,0,0,0,0,15,
scooby_state_40a846|21|1 14,0,0,0,0,0,0,0,0,0,0,0,0,0,0,14,
scooby_state_40a7dd|47|37 14,0,0,0,0,0,0,0,0,0,0,0,0,0,0,14,
scooby_state_40a73a|5|-4 14,0,0,0,0,0,0,0,0,0,0,0,0,0,0,14,
scooby_state_40a73a|4|-5 14,0,0,0,0,0,0,0,0,0,0,0,0,0,0,14,
scooby_state_40a860|50|37 14,0,0,0,0,0,0,0,0,0,0,0,0,0,0,14,
scooby_state_40a77d|11|4 13,0,0,0,1,0,0,0,0,0,0,0,0,0,0,14,
scooby_state_40a860|58|-5 13,0,0,0,0,0,0,0,0,0,0,0,0,0,0,13,
scooby_state_40a7c4|6|1 12,0,0,0,0,0,0,0,0,0,0,0,0,1,0,13,
scooby_state_40a7f6|9|1 13,0,0,0,0,0,0,0,0,0,0,0,0,0,0,13,
scooby_state_40a7f6|10|-3 13,0,0,0,0,0,0,0,0,0,0,0,0,0,0,13,
scooby_state_40a841|24|4 13,0,0,0,0,0,0,0,0,0,0,0,0,0,0,13,
scooby_state_40a860|16|-19 13,0,0,0,0,0,0,0,0,0,0,0,0,0,0,13,
scooby_state_40a73a|6|-15 13,0,0,0,0,0,0,0,0,0,0,0,0,0,0,13,
scooby_state_40a7dd|0|-32 12,0,0,0,0,0,0,0,0,0,0,0,0,0,0,12,
scooby_state_40a7c4|61|1 12,0,0,0,0,0,0,0,0,0,0,0,0,0,0,12,
scooby_state_40a77d|18|11 12,0,0,0,0,0,0,0,0,0,0,0,0,0,0,12,
scooby_state_40a860|43|38 12,0,0,0,0,0,0,0,0,0,0,0,0,0,0,12,
scooby_state_40a7dd|17|-46 12,0,0,0,0,0,0,0,0,0,0,0,0,0,0,12,
scooby_state_40a7dd|21|-37 12,0,0,0,0,0,0,0,0,0,0,0,0,0,0,12,
scooby_state_40a78d|7|3 12,0,0,0,0,0,0,0,0,0,0,0,0,0,0,12,
scooby_state_40a77d|25|1 12,0,0,0,0,0,0,0,0,0,0,0,0,0,0,12,
scooby_state_40a7c4|62|1 12,0,0,0,0,0,0,0,0,0,0,0,0,0,0,12,
scooby_state_40a7dd|51|38 12,0,0,0,0,0,0,0,0,0,0,0,0,0,0,12,
scooby_state_40a7c4|5|1 12,0,0,0,0,0,0,0,0,0,0,0,0,0,0,12,
scooby_state_40a7c4|10|-11 11,0,0,0,0,0,0,0,0,0,0,0,0,0,0,11,
scooby_state_40a7f6|8|1 11,0,0,0,0,0,0,0,0,0,0,0,0,0,0,11,
scooby_state_40a860|17|-46 11,0,0,0,0,0,0,0,0,0,0,0,0,0,0,11,
scooby_state_40a7dd|0|-6 11,0,0,0,0,0,0,0,0,0,0,0,0,0,0,11,
scooby_state_40a7c4|1|1 11,0,0,0,0,0,0,0,0,0,0,0,0,0,0,11,
scooby_state_40a7c4|63|1 11,0,0,0,0,0,0,0,0,0,0,0,0,0,0,11,
scooby_state_40a7c4|60|1 11,0,0,0,0,0,0,0,0,0,0,0,0,0,0,11,
scooby_state_40a78d|17|1 11,0,0,0,0,0,0,0,0,0,0,0,0,0,0,11,
scooby_state_40a72b|22|0 7,0,0,0,0,0,0,0,0,0,0,0,1,3,0,11,
scooby_state_40a8f8|24|1 11,0,0,0,0,0,0,0,0,0,0,0,0,0,0,11,
scooby_state_40a77d|11|2 11,0,0,0,0,0,0,0,0,0,0,0,0,0,0,11,
scooby_state_40a7f6|5|1 11,0,0,0,0,0,0,0,0,0,0,0,0,0,0,11,
scooby_state_40a77d|14|1 11,0,0,0,0,0,0,0,0,0,0,0,0,0,0,11,
scooby_state_40a860|17|-19 10,0,0,0,0,0,0,0,0,0,0,0,0,0,0,10,
scooby_state_40a7dd|18|5 10,0,0,0,0,0,0,0,0,0,0,0,0,0,0,10,
scooby_state_40a860|24|-37 10,0,0,0,0,0,0,0,0,0,0,0,0,0,0,10,
scooby_state_40a72b|24|0 0,0,0,0,0,0,0,0,0,0,0,0,0,0,10,10,
scooby_state_40a78d|8|3 10,0,0,0,0,0,0,0,0,0,0,0,0,0,0,10,
scooby_state_40a7dd|2|-56 10,0,0,0,0,0,0,0,0,0,0,0,0,0,0,10,
scooby_state_40a7dd|51|19 10,0,0,0,0,0,0,0,0,0,0,0,0,0,0,10,
scooby_state_40a860|5|-56 10,0,0,0,0,0,0,0,0,0,0,0,0,0,0,10,
scooby_state_40a77d|10|-11 10,0,0,0,0,0,0,0,0,0,0,0,0,0,0,10,
scooby_state_40a7c4|9|3 10,0,0,0,0,0,0,0,0,0,0,0,0,0,0,10,
scooby_state_40a7c4|4|1 10,0,0,0,0,0,0,0,0,0,0,0,0,0,0,10,
scooby_state_40a841|31|1 10,0,0,0,0,0,0,0,0,0,0,0,0,0,0,10,
scooby_state_40a7f6|6|1 10,0,0,0,0,0,0,0,0,0,0,0,0,0,0,10,
scooby_state_40a860|0|-35 10,0,0,0,0,0,0,0,0,0,0,0,0,0,0,10,
scooby_state_40a7af|18|0 10,0,0,0,0,0,0,0,0,0,0,0,0,0,0,10,
scooby_state_40a7c4|2|1 10,0,0,0,0,0,0,0,0,0,0,0,0,0,0,10,
scooby_state_40a77d|17|1 10,0,0,0,0,0,0,0,0,0,0,0,0,0,0,10,
scooby_state_40a860|21|-42 10,0,0,0,0,0,0,0,0,0,0,0,0,0,0,10,
scooby_state_40a78d|9|1 10,0,0,0,0,0,0,0,0,0,0,0,0,0,0,10,
scooby_state_40a78d|8|1 10,0,0,0,0,0,0,0,0,0,0,0,0,0,0,10,
scooby_state_40a8f8|25|1 10,0,0,0,0,0,0,0,0,0,0,0,0,0,0,10,
scooby_state_40a841|26|1 10,0,0,0,0,0,0,0,0,0,0,0,0,0,0,10,
scooby_state_40a7dd|40|38 10,0,0,0,0,0,0,0,0,0,0,0,0,0,0,10,
scooby_state_40a860|55|19 9,0,0,0,0,0,0,0,0,0,0,0,0,0,0,9,
scooby_state_40a860|10|-18 9,0,0,0,0,0,0,0,0,0,0,0,0,0,0,9,
scooby_state_40a77d|17|4 9,0,0,0,0,0,0,0,0,0,0,0,0,0,0,9,
scooby_state_40a73a|5|-2 8,0,1,0,0,0,0,0,0,0,0,0,0,0,0,9,
scooby_state_40a7c4|3|1 9,0,0,0,0,0,0,0,0,0,0,0,0,0,0,9,
scooby_state_40a860|0|-8 9,0,0,0,0,0,0,0,0,0,0,0,0,0,0,9,
scooby_state_40a841|24|1 9,0,0,0,0,0,0,0,0,0,0,0,0,0,0,9,
scooby_state_40a7af|18|1 9,0,0,0,0,0,0,0,0,0,0,0,0,0,0,9,
scooby_state_40a7c4|9|1 9,0,0,0,0,0,0,0,0,0,0,0,0,0,0,9,
scooby_state_40a8f8|17|4 9,0,0,0,0,0,0,0,0,0,0,0,0,0,0,9,
scooby_state_40a7c4|7|1 9,0,0,0,0,0,0,0,0,0,0,0,0,0,0,9,
scooby_state_40a7af|10|2 9,0,0,0,0,0,0,0,0,0,0,0,0,0,0,9,
scooby_state_40a8f8|18|2 9,0,0,0,0,0,0,0,0,0,0,0,0,0,0,9,
scooby_state_40a7dd|55|19 9,0,0,0,0,0,0,0,0,0,0,0,0,0,0,9,
scooby_state_40a7dd|0|-58 8,0,0,0,0,0,0,0,0,0,0,0,0,0,0,8,
scooby_state_40a846|12|1 8,0,0,0,0,0,0,0,0,0,0,0,0,0,0,8,
scooby_state_40a77d|15|1 8,0,0,0,0,0,0,0,0,0,0,0,0,0,0,8,
scooby_state_40a7dd|0|-21 8,0,0,0,0,0,0,0,0,0,0,0,0,0,0,8,
scooby_state_40a841|30|1 8,0,0,0,0,0,0,0,0,0,0,0,0,0,0,8,
scooby_state_40a77d|26|1 8,0,0,0,0,0,0,0,0,0,0,0,0,0,0,8,
scooby_state_40a73a|5|-16 8,0,0,0,0,0,0,0,0,0,0,0,0,0,0,8,
scooby_state_40a860|18|5 8,0,0,0,0,0,0,0,0,0,0,0,0,0,0,8,
scooby_state_40a78d|18|-2 8,0,0,0,0,0,0,0,0,0,0,0,0,0,0,8,
scooby_state_40a7f6|7|1 8,0,0,0,0,0,0,0,0,0,0,0,0,0,0,8,
scooby_state_40a78d|16|3 8,0,0,0,0,0,0,0,0,0,0,0,0,0,0,8,
scooby_state_40a860|10|-53 8,0,0,0,0,0,0,0,0,0,0,0,0,0,0,8,
scooby_state_40a846|13|1 8,0,0,0,0,0,0,0,0,0,0,0,0,0,0,8,
scooby_state_40a860|58|38 8,0,0,0,0,0,0,0,0,0,0,0,0,0,0,8,
scooby_state_40a860|0|-28 8,0,0,0,0,0,0,0,0,0,0,0,0,0,0,8,
scooby_state_40a7dd|8|3 8,0,0,0,0,0,0,0,0,0,0,0,0,0,0,8,
scooby_state_40a78d|14|1 8,0,0,0,0,0,0,0,0,0,0,0,0,0,0,8,
scooby_state_40a7c4|8|1 8,0,0,0,0,0,0,0,0,0,0,0,0,0,0,8,
scooby_state_40a7dd|55|-8 8,0,0,0,0,0,0,0,0,0,0,0,0,0,0,8,
scooby_state_40a860|58|19 8,0,0,0,0,0,0,0,0,0,0,0,0,0,0,8,
scooby_state_40a78d|9|4 8,0,0,0,0,0,0,0,0,0,0,0,0,0,0,8,
scooby_state_40a860|21|19 8,0,0,0,0,0,0,0,0,0,0,0,0,0,0,8,
scooby_state_40a78d|18|2 8,0,0,0,0,0,0,0,0,0,0,0,0,0,0,8,
scooby_state_40a7dd|0|-36 8,0,0,0,0,0,0,0,0,0,0,0,0,0,0,8,
scooby_state_40a7c4|5|-16 8,0,0,0,0,0,0,0,0,0,0,0,0,0,0,8,
scooby_state_40a860|2|-37 7,0,0,0,0,0,0,0,0,0,0,0,0,0,0,7,
scooby_state_40a7dd|13|0 7,0,0,0,0,0,0,0,0,0,0,0,0,0,0,7,
scooby_state_40a860|0|-61 7,0,0,0,0,0,0,0,0,0,0,0,0,0,0,7,
scooby_state_40a860|10|2 7,0,0,0,0,0,0,0,0,0,0,0,0,0,0,7,
scooby_state_40a7f6|3|1 7,0,0,0,0,0,0,0,0,0,0,0,0,0,0,7,
scooby_state_40a7af|10|0 7,0,0,0,0,0,0,0,0,0,0,0,0,0,0,7,
scooby_state_40a73a|6|-1 7,0,0,0,0,0,0,0,0,0,0,0,0,0,0,7,
scooby_state_40a7dd|0|-25 7,0,0,0,0,0,0,0,0,0,0,0,0,0,0,7,
scooby_state_40a860|8|3 7,0,0,0,0,0,0,0,0,0,0,0,0,0,0,7,
scooby_state_40a7af|19|0 7,0,0,0,0,0,0,0,0,0,0,0,0,0,0,7,
scooby_state_40a77d|16|1 7,0,0,0,0,0,0,0,0,0,0,0,0,0,0,7,
scooby_state_40a7f6|9|4 7,0,0,0,0,0,0,0,0,0,0,0,0,0,0,7,
scooby_state_40a7c4|59|-4 7,0,0,0,0,0,0,0,0,0,0,0,0,0,0,7,
scooby_state_40a7f6|9|3 7,0,0,0,0,0,0,0,0,0,0,0,0,0,0,7,
scooby_state_40a846|21|0 7,0,0,0,0,0,0,0,0,0,0,0,0,0,0,7,
scooby_state_40a7dd|6|-19 7,0,0,0,0,0,0,0,0,0,0,0,0,0,0,7,
scooby_state_40a7dd|44|-19 7,0,0,0,0,0,0,0,0,0,0,0,0,0,0,7,
scooby_state_40a7dd|58|-5 7,0,0,0,0,0,0,0,0,0,0,0,0,0,0,7,
scooby_state_40a860|43|19 7,0,0,0,0,0,0,0,0,0,0,0,0,0,0,7,
scooby_state_40a7af|8|3 7,0,0,0,0,0,0,0,0,0,0,0,0,0,0,7,
scooby_state_40a7f6|10|3 7,0,0,0,0,0,0,0,0,0,0,0,0,0,0,7,
scooby_state_40a7f6|4|1 7,0,0,0,0,0,0,0,0,0,0,0,0,0,0,7,
scooby_state_40a7dd|40|19 7,0,0,0,0,0,0,0,0,0,0,0,0,0,0,7,
scooby_state_40a846|18|0 7,0,0,0,0,0,0,0,0,0,0,0,0,0,0,7,
scooby_state_40a860|17|-38 7,0,0,0,0,0,0,0,0,0,0,0,0,0,0,7,
scooby_state_40a77d|28|1 7,0,0,0,0,0,0,0,0,0,0,0,0,0,0,7,
scooby_state_40a77d|10|1 7,0,0,0,0,0,0,0,0,0,0,0,0,0,0,7,
scooby_state_40a807|62|1 7,0,0,0,0,0,0,0,0,0,0,0,0,0,0,7,
scooby_state_40a7af|10|1 7,0,0,0,0,0,0,0,0,0,0,0,0,0,0,7,
scooby_state_40a7dd|36|-27 7,0,0,0,0,0,0,0,0,0,0,0,0,0,0,7,
scooby_state_40a860|0|-31 7,0,0,0,0,0,0,0,0,0,0,0,0,0,0,7,
scooby_state_40a846|11|1 7,0,0,0,0,0,0,0,0,0,0,0,0,0,0,7,
scooby_state_40a7dd|10|2 7,0,0,0,0,0,0,0,0,0,0,0,0,0,0,7,
scooby_state_40a8f8|24|3 7,0,0,0,0,0,0,0,0,0,0,0,0,0,0,7,
scooby_state_40a78d|6|1 7,0,0,0,0,0,0,0,0,0,0,0,0,0,0,7,
scooby_state_40a73a|6|-2 7,0,0,0,0,0,0,0,0,0,0,0,0,0,0,7,
scooby_state_40a860|58|56 6,0,0,0,0,0,0,0,0,0,0,0,0,0,0,6,
scooby_state_40a8f8|15|2 6,0,0,0,0,0,0,0,0,0,0,0,0,0,0,6,
scooby_state_40a860|0|-42 6,0,0,0,0,0,0,0,0,0,0,0,0,0,0,6,
scooby_state_40a72b|17|0 4,2,0,0,0,0,0,0,0,0,0,0,0,0,0,6,
scooby_state_40a7dd|21|-42 6,0,0,0,0,0,0,0,0,0,0,0,0,0,0,6,
scooby_state_40a7f6|8|4 6,0,0,0,0,0,0,0,0,0,0,0,0,0,0,6,
scooby_state_40a7dd|6|-56 6,0,0,0,0,0,0,0,0,0,0,0,0,0,0,6,
scooby_state_40a860|39|-24 6,0,0,0,0,0,0,0,0,0,0,0,0,0,0,6,
scooby_state_40a78d|5|1 6,0,0,0,0,0,0,0,0,0,0,0,0,0,0,6,
scooby_state_40a78d|18|-40 6,0,0,0,0,0,0,0,0,0,0,0,0,0,0,6,
scooby_state_40a78d|16|1 6,0,0,0,0,0,0,0,0,0,0,0,0,0,0,6,
scooby_state_40a860|43|-20 6,0,0,0,0,0,0,0,0,0,0,0,0,0,0,6,
scooby_state_40a846|18|1 6,0,0,0,0,0,0,0,0,0,0,0,0,0,0,6,
scooby_state_40a78d|10|-10 6,0,0,0,0,0,0,0,0,0,0,0,0,0,0,6,
scooby_state_40a860|47|38 6,0,0,0,0,0,0,0,0,0,0,0,0,0,0,6,
scooby_state_40a73a|6|-4 6,0,0,0,0,0,0,0,0,0,0,0,0,0,0,6,
scooby_state_40a7f6|2|1 6,0,0,0,0,0,0,0,0,0,0,0,0,0,0,6,
scooby_state_40a860|55|-8 6,0,0,0,0,0,0,0,0,0,0,0,0,0,0,6,
scooby_state_40a7dd|18|-14 6,0,0,0,0,0,0,0,0,0,0,0,0,0,0,6,
scooby_state_40a841|29|1 6,0,0,0,0,0,0,0,0,0,0,0,0,0,0,6,
scooby_state_40a77d|27|1 6,0,0,0,0,0,0,0,0,0,0,0,0,0,0,6,
scooby_state_40a841|28|1 6,0,0,0,0,0,0,0,0,0,0,0,0,0,0,6,
scooby_state_40a8f8|28|7 6,0,0,0,0,0,0,0,0,0,0,0,0,0,0,6,
scooby_state_40a8f8|23|1 6,0,0,0,0,0,0,0,0,0,0,0,0,0,0,6,
scooby_state_40a78d|7|1 6,0,0,0,0,0,0,0,0,0,0,0,0,0,0,6,
scooby_state_40a846|10|0 6,0,0,0,0,0,0,0,0,0,0,0,0,0,0,6,
scooby_state_40a74a|8|-1 6,0,0,0,0,0,0,0,0,0,0,0,0,0,0,6,
scooby_state_40a7af|18|5 6,0,0,0,0,0,0,0,0,0,0,0,0,0,0,6,
scooby_state_40a860|47|-16 6,0,0,0,0,0,0,0,0,0,0,0,0,0,0,6,
scooby_state_40a8f8|18|-3 6,0,0,0,0,0,0,0,0,0,0,0,0,0,0,6,
scooby_state_40a7dd|0|-28 6,0,0,0,0,0,0,0,0,0,0,0,0,0,0,6,
scooby_state_40a78d|4|3 6,0,0,0,0,0,0,0,0,0,0,0,0,0,0,6,
scooby_state_40a8f8|26|1 6,0,0,0,0,0,0,0,0,0,0,0,0,0,0,6,
scooby_state_40a841|25|5 6,0,0,0,0,0,0,0,0,0,0,0,0,0,0,6,
scooby_state_40a78d|19|6 6,0,0,0,0,0,0,0,0,0,0,0,0,0,0,6,
scooby_state_40a73a|5|-3 6,0,0,0,0,0,0,0,0,0,0,0,0,0,0,6,
scooby_state_40a7f6|62|1 6,0,0,0,0,0,0,0,0,0,0,0,0,0,0,6,
scooby_state_40a7f6|12|2 5,0,0,0,0,0,0,0,0,0,0,0,0,0,0,5,
scooby_state_40a860|18|-17 5,0,0,0,0,0,0,0,0,0,0,0,0,0,0,5,
scooby_state_40a74a|7|-3 5,0,0,0,0,0,0,0,0,0,0,0,0,0,0,5,
scooby_state_40a846|10|1 5,0,0,0,0,0,0,0,0,0,0,0,0,0,0,5,
scooby_state_40a78d|17|4 5,0,0,0,0,0,0,0,0,0,0,0,0,0,0,5,
scooby_state_40a8f8|31|1 5,0,0,0,0,0,0,0,0,0,0,0,0,0,0,5,
scooby_state_40a7dd|55|38 5,0,0,0,0,0,0,0,0,0,0,0,0,0,0,5,
scooby_state_40a7c4|8|2 5,0,0,0,0,0,0,0,0,0,0,0,0,0,0,5,
scooby_state_40a7dd|29|19 5,0,0,0,0,0,0,0,0,0,0,0,0,0,0,5,
scooby_state_40a807|1|1 5,0,0,0,0,0,0,0,0,0,0,0,0,0,0,5,
scooby_state_40a7dd|59|57 5,0,0,0,0,0,0,0,0,0,0,0,0,0,0,5,
scooby_state_40a7dd|10|-53 5,0,0,0,0,0,0,0,0,0,0,0,0,0,0,5,
scooby_state_40a791|20|1 5,0,0,0,0,0,0,0,0,0,0,0,0,0,0,5,
scooby_state_40a860|61|56 5,0,0,0,0,0,0,0,0,0,0,0,0,0,0,5,
scooby_state_40a7c4|59|1 5,0,0,0,0,0,0,0,0,0,0,0,0,0,0,5,
scooby_state_40a807|63|1 5,0,0,0,0,0,0,0,0,0,0,0,0,0,0,5,
scooby_state_40a8f8|18|3 5,0,0,0,0,0,0,0,0,0,0,0,0,0,0,5,
scooby_state_40a807|58|50 5,0,0,0,0,0,0,0,0,0,0,0,0,0,0,5,
scooby_state_40a77d|24|3 5,0,0,0,0,0,0,0,0,0,0,0,0,0,0,5,
scooby_state_40a7dd|40|-18 4,0,0,0,0,1,0,0,0,0,0,0,0,0,0,5,
scooby_state_40a78d|13|3 5,0,0,0,0,0,0,0,0,0,0,0,0,0,0,5,
scooby_state_40a860|16|0 5,0,0,0,0,0,0,0,0,0,0,0,0,0,0,5,
scooby_state_40a78d|9|3 5,0,0,0,0,0,0,0,0,0,0,0,0,0,0,5,
scooby_state_40a7dd|50|2 5,0,0,0,0,0,0,0,0,0,0,0,0,0,0,5,
scooby_state_40a860|13|-50 5,0,0,0,0,0,0,0,0,0,0,0,0,0,0,5,
scooby_state_40a7dd|40|-23 5,0,0,0,0,0,0,0,0,0,0,0,0,0,0,5,
scooby_state_40a77d|18|9 5,0,0,0,0,0,0,0,0,0,0,0,0,0,0,5,
scooby_state_40a78d|15|1 5,0,0,0,0,0,0,0,0,0,0,0,0,0,0,5,
scooby_state_40a846|0|0 5,0,0,0,0,0,0,0,0,0,0,0,0,0,0,5,
scooby_state_40a807|59|1 5,0,0,0,0,0,0,0,0,0,0,0,0,0,0,5,
scooby_state_40a77d|10|-53 4,1,0,0,0,0,0,0,0,0,0,0,0,0,0,5,
scooby_state_40a78d|4|1 5,0,0,0,0,0,0,0,0,0,0,0,0,0,0,5,
scooby_state_40a807|60|1 5,0,0,0,0,0,0,0,0,0,0,0,0,0,0,5,
scooby_state_40a841|23|1 5,0,0,0,0,0,0,0,0,0,0,0,0,0,0,5,
scooby_state_40a7dd|59|-4 5,0,0,0,0,0,0,0,0,0,0,0,0,0,0,5,
scooby_state_40a860|10|-11 5,0,0,0,0,0,0,0,0,0,0,0,0,0,0,5,
scooby_state_40a73a|5|-8 5,0,0,0,0,0,0,0,0,0,0,0,0,0,0,5,
scooby_state_40a73a|6|-3 5,0,0,0,0,0,0,0,0,0,0,0,0,0,0,5,
scooby_state_40a78d|6|2 5,0,0,0,0,0,0,0,0,0,0,0,0,0,0,5,
scooby_state_40a8f8|14|1 5,0,0,0,0,0,0,0,0,0,0,0,0,0,0,5,
scooby_state_40a7dd|13|-50 5,0,0,0,0,0,0,0,0,0,0,0,0,0,0,5,
scooby_state_40a7c4|58|0 5,0,0,0,0,0,0,0,0,0,0,0,0,0,0,5,
scooby_state_40a7c4|0|-21 5,0,0,0,0,0,0,0,0,0,0,0,0,0,0,5,
scooby_state_40a7f6|1|1 5,0,0,0,0,0,0,0,0,0,0,0,0,0,0,5,
scooby_state_40a860|0|-24 5,0,0,0,0,0,0,0,0,0,0,0,0,0,0,5,
scooby_state_40a73a|6|1 5,0,0,0,0,0,0,0,0,0,0,0,0,0,0,5,
scooby_state_40a846|5|0 5,0,0,0,0,0,0,0,0,0,0,0,0,0,0,5,
scooby_state_40a807|61|1 5,0,0,0,0,0,0,0,0,0,0,0,0,0,0,5,
scooby_state_40a8f8|17|1 5,0,0,0,0,0,0,0,0,0,0,0,0,0,0,5,
scooby_state_40a841|27|2 5,0,0,0,0,0,0,0,0,0,0,0,0,0,0,5,
scooby_state_40a78d|5|-15 5,0,0,0,0,0,0,0,0,0,0,0,0,0,0,5,
scooby_state_40a8f8|16|3 5,0,0,0,0,0,0,0,0,0,0,0,0,0,0,5,
scooby_state_40a860|50|-13 5,0,0,0,0,0,0,0,0,0,0,0,0,0,0,5,
scooby_state_40a7dd|32|19 5,0,0,0,0,0,0,0,0,0,0,0,0,0,0,5,
scooby_state_40a77d|25|4 5,0,0,0,0,0,0,0,0,0,0,0,0,0,0,5,
scooby_state_40a860|16|-47 5,0,0,0,0,0,0,0,0,0,0,0,0,0,0,5,
scooby_state_40a860|54|19 5,0,0,0,0,0,0,0,0,0,0,0,0,0,0,5,
scooby_state_40a7dd|5|-5 5,0,0,0,0,0,0,0,0,0,0,0,0,0,0,5,
scooby_state_40a7af|21|0 5,0,0,0,0,0,0,0,0,0,0,0,0,0,0,5,
scooby_state_40a74a|9|1 5,0,0,0,0,0,0,0,0,0,0,0,0,0,0,5,
scooby_state_40a8db|45|0 5,0,0,0,0,0,0,0,0,0,0,0,0,0,0,5,
scooby_state_40a841|27|1 5,0,0,0,0,0,0,0,0,0,0,0,0,0,0,5,
scooby_state_40a7c4|10|3 5,0,0,0,0,0,0,0,0,0,0,0,0,0,0,5,
scooby_state_40a8f8|25|4 5,0,0,0,0,0,0,0,0,0,0,0,0,0,0,5,
scooby_state_40a7af|23|2 5,0,0,0,0,0,0,0,0,0,0,0,0,0,0,5,
scooby_state_40a82e|40|1 4,0,0,0,0,0,0,0,0,0,0,0,0,0,0,4,
scooby_state_40a860|13|3 4,0,0,0,0,0,0,0,0,0,0,0,0,0,0,4,
scooby_state_40a707|0|0 4,0,0,0,0,0,0,0,0,0,0,0,0,0,0,4,
scooby_state_40a860|13|0 4,0,0,0,0,0,0,0,0,0,0,0,0,0,0,4,
scooby_state_40a78d|18|8 4,0,0,0,0,0,0,0,0,0,0,0,0,0,0,4,
scooby_state_40a77d|18|-12 4,0,0,0,0,0,0,0,0,0,0,0,0,0,0,4,
scooby_state_40a846|24|1 4,0,0,0,0,0,0,0,0,0,0,0,0,0,0,4,
scooby_state_40a860|24|19 4,0,0,0,0,0,0,0,0,0,0,0,0,0,0,4,
scooby_state_40a8f8|18|-12 4,0,0,0,0,0,0,0,0,0,0,0,0,0,0,4,
scooby_state_40a7f6|0|-63 4,0,0,0,0,0,0,0,0,0,0,0,0,0,0,4,
scooby_state_40a791|19|1 4,0,0,0,0,0,0,0,0,0,0,0,0,0,0,4,
scooby_state_40a7f6|7|3 4,0,0,0,0,0,0,0,0,0,0,0,0,0,0,4,
scooby_state_40a7dd|51|41 4,0,0,0,0,0,0,0,0,0,0,0,0,0,0,4,
scooby_state_40a860|0|-39 4,0,0,0,0,0,0,0,0,0,0,0,0,0,0,4,
scooby_state_40a78d|6|-56 4,0,0,0,0,0,0,0,0,0,0,0,0,0,0,4,
scooby_state_40a77d|10|-48 4,0,0,0,0,0,0,0,0,0,0,0,0,0,0,4,
scooby_state_40a846|19|0 4,0,0,0,0,0,0,0,0,0,0,0,0,0,0,4,
scooby_state_40a82e|31|1 4,0,0,0,0,0,0,0,0,0,0,0,0,0,0,4,
scooby_state_40a7dd|62|37 4,0,0,0,0,0,0,0,0,0,0,0,0,0,0,4,
scooby_state_40a7c4|10|-3 4,0,0,0,0,0,0,0,0,0,0,0,0,0,0,4,
scooby_state_40a7dd|14|-18 4,0,0,0,0,0,0,0,0,0,0,0,0,0,0,4,
scooby_state_40a7dd|7|2 4,0,0,0,0,0,0,0,0,0,0,0,0,0,0,4,
scooby_state_40a73a|5|-18 4,0,0,0,0,0,0,0,0,0,0,0,0,0,0,4,
scooby_state_40a860|50|19 4,0,0,0,0,0,0,0,0,0,0,0,0,0,0,4,
scooby_state_40a78d|5|-18 4,0,0,0,0,0,0,0,0,0,0,0,0,0,0,4,
scooby_state_40a7dd|44|38 4,0,0,0,0,0,0,0,0,0,0,0,0,0,0,4,
scooby_state_40a7af|24|3 4,0,0,0,0,0,0,0,0,0,0,0,0,0,0,4,
scooby_state_40a7a6|48|1 4,0,0,0,0,0,0,0,0,0,0,0,0,0,0,4,
scooby_state_40a7dd|17|0 4,0,0,0,0,0,0,0,0,0,0,0,0,0,0,4,
scooby_state_40a7af|1|1 4,0,0,0,0,0,0,0,0,0,0,0,0,0,0,4,
scooby_state_40a710|26|0 4,0,0,0,0,0,0,0,0,0,0,0,0,0,0,4,
scooby_state_40a8f8|26|5 4,0,0,0,0,0,0,0,0,0,0,0,0,0,0,4,
scooby_state_40a791|21|1 4,0,0,0,0,0,0,0,0,0,0,0,0,0,0,4,
scooby_state_40a860|32|-31 4,0,0,0,0,0,0,0,0,0,0,0,0,0,0,4,
scooby_state_40a8f8|30|9 4,0,0,0,0,0,0,0,0,0,0,0,0,0,0,4,
scooby_state_40a7f6|59|1 4,0,0,0,0,0,0,0,0,0,0,0,0,0,0,4,
scooby_state_40a77d|18|2 4,0,0,0,0,0,0,0,0,0,0,0,0,0,0,4,
scooby_state_40a73a|4|-9 4,0,0,0,0,0,0,0,0,0,0,0,0,0,0,4,
scooby_state_40a7dd|29|-34 4,0,0,0,0,0,0,0,0,0,0,0,0,0,0,4,
scooby_state_40a77d|18|10 4,0,0,0,0,0,0,0,0,0,0,0,0,0,0,4,
scooby_state_40a7af|22|1 4,0,0,0,0,0,0,0,0,0,0,0,0,0,0,4,
scooby_state_40a7dd|59|38 4,0,0,0,0,0,0,0,0,0,0,0,0,0,0,4,
scooby_state_40a8f8|18|-4 4,0,0,0,0,0,0,0,0,0,0,0,0,0,0,4,
scooby_state_40a7af|20|0 4,0,0,0,0,0,0,0,0,0,0,0,0,0,0,4,
scooby_state_40a8f8|21|0 4,0,0,0,0,0,0,0,0,0,0,0,0,0,0,4,
scooby_state_40a7af|0|0 4,0,0,0,0,0,0,0,0,0,0,0,0,0,0,4,
scooby_state_40a860|39|37 4,0,0,0,0,0,0,0,0,0,0,0,0,0,0,4,
scooby_state_40a860|43|-18 4,0,0,0,0,0,0,0,0,0,0,0,0,0,0,4,
scooby_state_40a860|0|-21 4,0,0,0,0,0,0,0,0,0,0,0,0,0,0,4,
scooby_state_40a7dd|47|19 4,0,0,0,0,0,0,0,0,0,0,0,0,0,0,4,
scooby_state_40a78d|8|2 4,0,0,0,0,0,0,0,0,0,0,0,0,0,0,4,
scooby_state_40a77d|21|13 4,0,0,0,0,0,0,0,0,0,0,0,0,0,0,4,
scooby_state_40a860|24|-39 4,0,0,0,0,0,0,0,0,0,0,0,0,0,0,4,
scooby_state_40a73a|4|-59 4,0,0,0,0,0,0,0,0,0,0,0,0,0,0,4,
scooby_state_40a707|20|0 4,0,0,0,0,0,0,0,0,0,0,0,0,0,0,4,
scooby_state_40a8f8|30|5 4,0,0,0,0,0,0,0,0,0,0,0,0,0,0,4,
scooby_state_40a74a|8|1 4,0,0,0,0,0,0,0,0,0,0,0,0,0,0,4,
scooby_state_40a7c4|58|-5 4,0,0,0,0,0,0,0,0,0,0,0,0,0,0,4,
scooby_state_40a7a6|51|1 4,0,0,0,0,0,0,0,0,0,0,0,0,0,0,4,
scooby_state_40a7af|17|1 4,0,0,0,0,0,0,0,0,0,0,0,0,0,0,4,
scooby_state_40a7dd|23|2 4,0,0,0,0,0,0,0,0,0,0,0,0,0,0,4,
scooby_state_40a7c4|5|-8 4,0,0,0,0,0,0,0,0,0,0,0,0,0,0,4,
scooby_state_40a710|30|0 4,0,0,0,0,0,0,0,0,0,0,0,0,0,0,4,
scooby_state_40a73a|6|-18 4,0,0,0,0,0,0,0,0,0,0,0,0,0,0,4,
scooby_state_40a889|0|0 4,0,0,0,0,0,0,0,0,0,0,0,0,0,0,4,
scooby_state_40a77d|10|5 4,0,0,0,0,0,0,0,0,0,0,0,0,0,0,4,
scooby_state_40a78d|18|-12 4,0,0,0,0,0,0,0,0,0,0,0,0,0,0,4,
scooby_state_40a77d|10|-52 4,0,0,0,0,0,0,0,0,0,0,0,0,0,0,4,
scooby_state_40a7f6|5|-58 4,0,0,0,0,0,0,0,0,0,0,0,0,0,0,4,
scooby_state_40a860|28|19 4,0,0,0,0,0,0,0,0,0,0,0,0,0,0,4,
scooby_state_40a841|30|10 4,0,0,0,0,0,0,0,0,0,0,0,0,0,0,4,
scooby_state_40a710|1|0 4,0,0,0,0,0,0,0,0,0,0,0,0,0,0,4,
scooby_state_40a73a|5|-23 4,0,0,0,0,0,0,0,0,0,0,0,0,0,0,4,
scooby_state_40a8f8|18|-6 4,0,0,0,0,0,0,0,0,0,0,0,0,0,0,4,
scooby_state_40a860|5|-8 4,0,0,0,0,0,0,0,0,0,0,0,0,0,0,4,
scooby_state_40a846|13|0 4,0,0,0,0,0,0,0,0,0,0,0,0,0,0,4,
scooby_state_40a7dd|47|-16 4,0,0,0,0,0,0,0,0,0,0,0,0,0,0,4,
scooby_state_40a7a6|54|1 4,0,0,0,0,0,0,0,0,0,0,0,0,0,0,4,
scooby_state_40a77d|10|6 4,0,0,0,0,0,0,0,0,0,0,0,0,0,0,4,
scooby_state_40a7af|8|1 4,0,0,0,0,0,0,0,0,0,0,0,0,0,0,4,
scooby_state_40a7af|5|1 4,0,0,0,0,0,0,0,0,0,0,0,0,0,0,4,
scooby_state_40a74a|8|-5 4,0,0,0,0,0,0,0,0,0,0,0,0,0,0,4,
scooby_state_40a8f8|29|1 4,0,0,0,0,0,0,0,0,0,0,0,0,0,0,4,
scooby_state_40a73a|4|-2 4,0,0,0,0,0,0,0,0,0,0,0,0,0,0,4,
scooby_state_40a7f6|4|-59 4,0,0,0,0,0,0,0,0,0,0,0,0,0,0,4,
scooby_state_40a710|21|0 4,0,0,0,0,0,0,0,0,0,0,0,0,0,0,4,
scooby_state_40a7dd|10|-11 4,0,0,0,0,0,0,0,0,0,0,0,0,0,0,4,
scooby_state_40a7dd|59|20 4,0,0,0,0,0,0,0,0,0,0,0,0,0,0,4,
scooby_state_40a7a6|55|1 4,0,0,0,0,0,0,0,0,0,0,0,0,0,0,4,
scooby_state_40a7f6|4|-9 4,0,0,0,0,0,0,0,0,0,0,0,0,0,0,4,
scooby_state_40a846|20|0 4,0,0,0,0,0,0,0,0,0,0,0,0,0,0,4,
scooby_state_40a860|23|2 3,0,0,0,0,0,0,0,0,0,0,0,0,0,0,3,
scooby_state_40a7dd|62|0 3,0,0,0,0,0,0,0,0,0,0,0,0,0,0,3,
scooby_state_40a889|13|0 3,0,0,0,0,0,0,0,0,0,0,0,0,0,0,3,
scooby_state_40a860|17|4 3,0,0,0,0,0,0,0,0,0,0,0,0,0,0,3,
scooby_state_40a78d|4|-19 3,0,0,0,0,0,0,0,0,0,0,0,0,0,0,3,
scooby_state_40a7af|14|1 3,0,0,0,0,0,0,0,0,0,0,0,0,0,0,3,
scooby_state_40a7f6|7|-56 3,0,0,0,0,0,0,0,0,0,0,0,0,0,0,3,
scooby_state_40a73a|4|-54 3,0,0,0,0,0,0,0,0,0,0,0,0,0,0,3,
scooby_state_40a7af|2|1 3,0,0,0,0,0,0,0,0,0,0,0,0,0,0,3,
scooby_state_40a7dd|4|2 3,0,0,0,0,0,0,0,0,0,0,0,0,0,0,3,
scooby_state_40a7dd|16|3 3,0,0,0,0,0,0,0,0,0,0,0,0,0,0,3,
scooby_state_40a7af|17|0 3,0,0,0,0,0,0,0,0,0,0,0,0,0,0,3,
scooby_state_40a73a|5|-19 3,0,0,0,0,0,0,0,0,0,0,0,0,0,0,3,
scooby_state_40a7c4|4|-19 3,0,0,0,0,0,0,0,0,0,0,0,0,0,0,3,
scooby_state_40a7c4|6|3 3,0,0,0,0,0,0,0,0,0,0,0,0,0,0,3,
scooby_state_40a8f8|16|1 3,0,0,0,0,0,0,0,0,0,0,0,0,0,0,3,
scooby_state_40a78d|5|4 3,0,0,0,0,0,0,0,0,0,0,0,0,0,0,3,
scooby_state_40a82e|30|22 3,0,0,0,0,0,0,0,0,0,0,0,0,0,0,3,
scooby_state_40a860|13|-18 3,0,0,0,0,0,0,0,0,0,0,0,0,0,0,3,
scooby_state_40a8f8|21|2 3,0,0,0,0,0,0,0,0,0,0,0,0,0,0,3,
scooby_state_40a860|61|37 3,0,0,0,0,0,0,0,0,0,0,0,0,0,0,3,
scooby_state_40a7a6|58|3 3,0,0,0,0,0,0,0,0,0,0,0,0,0,0,3,
scooby_state_40a7af|25|4 3,0,0,0,0,0,0,0,0,0,0,0,0,0,0,3,
scooby_state_40a841|32|1 3,0,0,0,0,0,0,0,0,0,0,0,0,0,0,3,
scooby_state_40a7f6|5|-27 3,0,0,0,0,0,0,0,0,0,0,0,0,0,0,3,
scooby_state_40a7f6|61|57 3,0,0,0,0,0,0,0,0,0,0,0,0,0,0,3,
scooby_state_40a807|61|53 3,0,0,0,0,0,0,0,0,0,0,0,0,0,0,3,
scooby_state_40a77d|27|2 3,0,0,0,0,0,0,0,0,0,0,0,0,0,0,3,
scooby_state_40a841|28|8 3,0,0,0,0,0,0,0,0,0,0,0,0,0,0,3,
scooby_state_40a7dd|14|-37 3,0,0,0,0,0,0,0,0,0,0,0,0,0,0,3,
scooby_state_40a7dd|6|0 3,0,0,0,0,0,0,0,0,0,0,0,0,0,0,3,
scooby_state_40a7af|1|0 3,0,0,0,0,0,0,0,0,0,0,0,0,0,0,3,
scooby_state_40a7af|58|0 3,0,0,0,0,0,0,0,0,0,0,0,0,0,0,3,
scooby_state_40a7f6|4|2 3,0,0,0,0,0,0,0,0,0,0,0,0,0,0,3,
scooby_state_40a7f6|62|57 3,0,0,0,0,0,0,0,0,0,0,0,0,0,0,3,
scooby_state_40a7f6|13|3 3,0,0,0,0,0,0,0,0,0,0,0,0,0,0,3,
scooby_state_40a7af|9|4 3,0,0,0,0,0,0,0,0,0,0,0,0,0,0,3,
scooby_state_40a846|18|5 3,0,0,0,0,0,0,0,0,0,0,0,0,0,0,3,
scooby_state_40a7f6|4|3 3,0,0,0,0,0,0,0,0,0,0,0,0,0,0,3,
scooby_state_40a74a|8|2 3,0,0,0,0,0,0,0,0,0,0,0,0,0,0,3,
scooby_state_40a73a|6|-7 3,0,0,0,0,0,0,0,0,0,0,0,0,0,0,3,
scooby_state_40a807|58|1 3,0,0,0,0,0,0,0,0,0,0,0,0,0,0,3,
scooby_state_40a73a|6|-17 3,0,0,0,0,0,0,0,0,0,0,0,0,0,0,3,
scooby_state_40a707|48|0 3,0,0,0,0,0,0,0,0,0,0,0,0,0,0,3,
scooby_state_40a74a|9|-4 3,0,0,0,0,0,0,0,0,0,0,0,0,0,0,3,
scooby_state_40a860|61|0 3,0,0,0,0,0,0,0,0,0,0,0,0,0,0,3,
scooby_state_40a7dd|21|19 3,0,0,0,0,0,0,0,0,0,0,0,0,0,0,3,
scooby_state_40a8d7|0|0 1,2,0,0,0,0,0,0,0,0,0,0,0,0,0,3,
scooby_state_40a78d|4|-56 3,0,0,0,0,0,0,0,0,0,0,0,0,0,0,3,
scooby_state_40a7dd|10|-15 3,0,0,0,0,0,0,0,0,0,0,0,0,0,0,3,
scooby_state_40a7f6|6|2 3,0,0,0,0,0,0,0,0,0,0,0,0,0,0,3,
scooby_state_40a7dd|6|-38 3,0,0,0,0,0,0,0,0,0,0,0,0,0,0,3,
scooby_state_40a860|0|-53 3,0,0,0,0,0,0,0,0,0,0,0,0,0,0,3,
scooby_state_40a807|0|-20 3,0,0,0,0,0,0,0,0,0,0,0,0,0,0,3,
scooby_state_40a73a|5|1 3,0,0,0,0,0,0,0,0,0,0,0,0,0,0,3,
scooby_state_40a7f6|8|2 3,0,0,0,0,0,0,0,0,0,0,0,0,0,0,3,
scooby_state_40a7dd|21|-19 3,0,0,0,0,0,0,0,0,0,0,0,0,0,0,3,
scooby_state_40a7af|4|1 3,0,0,0,0,0,0,0,0,0,0,0,0,0,0,3,
scooby_state_40a7dd|0|-13 3,0,0,0,0,0,0,0,0,0,0,0,0,0,0,3,
scooby_state_40a860|0|-47 3,0,0,0,0,0,0,0,0,0,0,0,0,0,0,3,
scooby_state_40a860|0|-16 3,0,0,0,0,0,0,0,0,0,0,0,0,0,0,3,
scooby_state_40a7dd|25|19 3,0,0,0,0,0,0,0,0,0,0,0,0,0,0,3,
scooby_state_40a7af|62|1 3,0,0,0,0,0,0,0,0,0,0,0,0,0,0,3,
scooby_state_40a7f6|0|-13 3,0,0,0,0,0,0,0,0,0,0,0,0,0,0,3,
scooby_state_40a78d|5|2 3,0,0,0,0,0,0,0,0,0,0,0,0,0,0,3,
scooby_state_40a78d|3|3 3,0,0,0,0,0,0,0,0,0,0,0,0,0,0,3,
scooby_state_40a7af|3|0 3,0,0,0,0,0,0,0,0,0,0,0,0,0,0,3,
scooby_state_40a860|4|2 3,0,0,0,0,0,0,0,0,0,0,0,0,0,0,3,
scooby_state_40a8d7|63|0 3,0,0,0,0,0,0,0,0,0,0,0,0,0,0,3,
scooby_state_40a846|9|1 3,0,0,0,0,0,0,0,0,0,0,0,0,0,0,3,
scooby_state_40a7af|6|0 3,0,0,0,0,0,0,0,0,0,0,0,0,0,0,3,
scooby_state_40a7af|11|0 3,0,0,0,0,0,0,0,0,0,0,0,0,0,0,3,
scooby_state_40a8f8|18|12 3,0,0,0,0,0,0,0,0,0,0,0,0,0,0,3,
scooby_state_40a7af|25|1 3,0,0,0,0,0,0,0,0,0,0,0,0,0,0,3,
scooby_state_40a78d|4|-16 3,0,0,0,0,0,0,0,0,0,0,0,0,0,0,3,
scooby_state_40a7c4|6|6 3,0,0,0,0,0,0,0,0,0,0,0,0,0,0,3,
scooby_state_40a7f6|6|6 3,0,0,0,0,0,0,0,0,0,0,0,0,0,0,3,
scooby_state_40a7dd|0|-44 3,0,0,0,0,0,0,0,0,0,0,0,0,0,0,3,
scooby_state_40a7c4|61|-2 3,0,0,0,0,0,0,0,0,0,0,0,0,0,0,3,
scooby_state_40a7f6|4|-47 3,0,0,0,0,0,0,0,0,0,0,0,0,0,0,3,
scooby_state_40a860|0|-9 3,0,0,0,0,0,0,0,0,0,0,0,0,0,0,3,
scooby_state_40a710|5|0 3,0,0,0,0,0,0,0,0,0,0,0,0,0,0,3,
scooby_state_40a7f6|2|2 3,0,0,0,0,0,0,0,0,0,0,0,0,0,0,3,
scooby_state_40a710|24|0 3,0,0,0,0,0,0,0,0,0,0,0,0,0,0,3,
scooby_state_40a7f6|13|0 3,0,0,0,0,0,0,0,0,0,0,0,0,0,0,3,
scooby_state_40a7a6|52|1 3,0,0,0,0,0,0,0,0,0,0,0,0,0,0,3,
scooby_state_40a7dd|0|-40 3,0,0,0,0,0,0,0,0,0,0,0,0,0,0,3,
scooby_state_40a8d7|7|0 0,0,0,0,0,0,3,0,0,0,0,0,0,0,0,3,
scooby_state_40a74a|7|-2 3,0,0,0,0,0,0,0,0,0,0,0,0,0,0,3,
scooby_state_40a73a|5|-17 3,0,0,0,0,0,0,0,0,0,0,0,0,0,0,3,
scooby_state_40a8f8|18|0 3,0,0,0,0,0,0,0,0,0,0,0,0,0,0,3,
scooby_state_40a7a6|50|1 3,0,0,0,0,0,0,0,0,0,0,0,0,0,0,3,
scooby_state_40a860|7|2 3,0,0,0,0,0,0,0,0,0,0,0,0,0,0,3,
scooby_state_40a8d7|1|0 0,2,1,0,0,0,0,0,0,0,0,0,0,0,0,3,
scooby_state_40a860|61|-2 3,0,0,0,0,0,0,0,0,0,0,0,0,0,0,3,
scooby_state_40a7af|7|0 3,0,0,0,0,0,0,0,0,0,0,0,0,0,0,3,
scooby_state_40a7c4|8|4 3,0,0,0,0,0,0,0,0,0,0,0,0,0,0,3,
scooby_state_40a8f8|30|1 3,0,0,0,0,0,0,0,0,0,0,0,0,0,0,3,
scooby_state_40a8f8|13|-8 3,0,0,0,0,0,0,0,0,0,0,0,0,0,0,3,
scooby_state_40a860|10|-37 3,0,0,0,0,0,0,0,0,0,0,0,0,0,0,3,
scooby_state_40a8d7|11|0 3,0,0,0,0,0,0,0,0,0,0,0,0,0,0,3,
scooby_state_40a889|2|0 3,0,0,0,0,0,0,0,0,0,0,0,0,0,0,3,
scooby_state_40a8f8|15|1 3,0,0,0,0,0,0,0,0,0,0,0,0,0,0,3,
scooby_state_40a7af|15|1 3,0,0,0,0,0,0,0,0,0,0,0,0,0,0,3,
scooby_state_40a860|2|-61 3,0,0,0,0,0,0,0,0,0,0,0,0,0,0,3,
scooby_state_40a707|16|0 3,0,0,0,0,0,0,0,0,0,0,0,0,0,0,3,
scooby_state_40a7af|16|1 3,0,0,0,0,0,0,0,0,0,0,0,0,0,0,3,
scooby_state_40a889|7|0 3,0,0,0,0,0,0,0,0,0,0,0,0,0,0,3,
scooby_state_40a74a|8|-2 3,0,0,0,0,0,0,0,0,0,0,0,0,0,0,3,
scooby_state_40a78d|15|2 3,0,0,0,0,0,0,0,0,0,0,0,0,0,0,3,
scooby_state_40a8d7|5|0 0,0,0,0,2,1,0,0,0,0,0,0,0,0,0,3,
scooby_state_40a7c4|63|2 3,0,0,0,0,0,0,0,0,0,0,0,0,0,0,3,
scooby_state_40a78d|18|12 3,0,0,0,0,0,0,0,0,0,0,0,0,0,0,3,
scooby_state_40a78d|5|-53 3,0,0,0,0,0,0,0,0,0,0,0,0,0,0,3,
scooby_state_40a860|47|19 3,0,0,0,0,0,0,0,0,0,0,0,0,0,0,3,
scooby_state_40a7c4|5|0 3,0,0,0,0,0,0,0,0,0,0,0,0,0,0,3,
scooby_state_40a7dd|0|-51 3,0,0,0,0,0,0,0,0,0,0,0,0,0,0,3,
scooby_state_40a74a|8|-16 3,0,0,0,0,0,0,0,0,0,0,0,0,0,0,3,
scooby_state_40a77d|13|4 3,0,0,0,0,0,0,0,0,0,0,0,0,0,0,3,
scooby_state_40a860|32|19 3,0,0,0,0,0,0,0,0,0,0,0,0,0,0,3,
scooby_state_40a7dd|44|-18 3,0,0,0,0,0,0,0,0,0,0,0,0,0,0,3,
scooby_state_40a7a6|58|38 3,0,0,0,0,0,0,0,0,0,0,0,0,0,0,3,
scooby_state_40a7a6|49|1 3,0,0,0,0,0,0,0,0,0,0,0,0,0,0,3,
scooby_state_40a77d|15|2 3,0,0,0,0,0,0,0,0,0,0,0,0,0,0,3,
scooby_state_40a7f6|5|0 3,0,0,0,0,0,0,0,0,0,0,0,0,0,0,3,
scooby_state_40a74a|8|-20 3,0,0,0,0,0,0,0,0,0,0,0,0,0,0,3,
scooby_state_40a73a|6|-22 3,0,0,0,0,0,0,0,0,0,0,0,0,0,0,3,
scooby_state_40a860|54|38 3,0,0,0,0,0,0,0,0,0,0,0,0,0,0,3,
scooby_state_40a77d|26|5 3,0,0,0,0,0,0,0,0,0,0,0,0,0,0,3,
scooby_state_40a77d|16|3 3,0,0,0,0,0,0,0,0,0,0,0,0,0,0,3,
scooby_state_40a73a|5|-1 3,0,0,0,0,0,0,0,0,0,0,0,0,0,0,3,
scooby_state_40a7c4|1|-20 3,0,0,0,0,0,0,0,0,0,0,0,0,0,0,3,
scooby_state_40a73a|4|-17 3,0,0,0,0,0,0,0,0,0,0,0,0,0,0,3,
scooby_state_40a77d|10|4 3,0,0,0,0,0,0,0,0,0,0,0,0,0,0,3,
scooby_state_40a8d7|58|0 3,0,0,0,0,0,0,0,0,0,0,0,0,0,0,3,
scooby_state_40a7af|61|1 3,0,0,0,0,0,0,0,0,0,0,0,0,0,0,3,
scooby_state_40a77d|10|-13 3,0,0,0,0,0,0,0,0,0,0,0,0,0,0,3,
scooby_state_40a73a|4|-1 3,0,0,0,0,0,0,0,0,0,0,0,0,0,0,3,
scooby_state_40a77d|18|3 3,0,0,0,0,0,0,0,0,0,0,0,0,0,0,3,
scooby_state_40a707|28|0 3,0,0,0,0,0,0,0,0,0,0,0,0,0,0,3,
scooby_state_40a846|25|1 3,0,0,0,0,0,0,0,0,0,0,0,0,0,0,3,
scooby_state_40a860|5|-37 3,0,0,0,0,0,0,0,0,0,0,0,0,0,0,3,
scooby_state_40a7af|3|1 3,0,0,0,0,0,0,0,0,0,0,0,0,0,0,3,
scooby_state_40a78d|10|-13 3,0,0,0,0,0,0,0,0,0,0,0,0,0,0,3,
scooby_state_40a7af|9|1 3,0,0,0,0,0,0,0,0,0,0,0,0,0,0,3,
scooby_state_40a7dd|4|-6 3,0,0,0,0,0,0,0,0,0,0,0,0,0,0,3,
scooby_state_40a7f6|63|1 3,0,0,0,0,0,0,0,0,0,0,0,0,0,0,3,
scooby_state_40a73a|6|-19 3,0,0,0,0,0,0,0,0,0,0,0,0,0,0,3,
scooby_state_40a8f8|13|0 3,0,0,0,0,0,0,0,0,0,0,0,0,0,0,3,
scooby_state_40a73a|5|-26 3,0,0,0,0,0,0,0,0,0,0,0,0,0,0,3,
scooby_state_40a707|63|0 3,0,0,0,0,0,0,0,0,0,0,0,0,0,0,3,
scooby_state_40a7a6|53|1 3,0,0,0,0,0,0,0,0,0,0,0,0,0,0,3,
scooby_state_40a7c4|6|2 2,0,0,0,0,0,0,0,0,0,0,0,0,0,0,2,
scooby_state_40a7af|7|1 2,0,0,0,0,0,0,0,0,0,0,0,0,0,0,2,
scooby_state_40a860|62|20 2,0,0,0,0,0,0,0,0,0,0,0,0,0,0,2,
scooby_state_40a7f6|5|-7 2,0,0,0,0,0,0,0,0,0,0,0,0,0,0,2,
scooby_state_40a846|4|1 2,0,0,0,0,0,0,0,0,0,0,0,0,0,0,2,
scooby_state_40a8d7|48|0 2,0,0,0,0,0,0,0,0,0,0,0,0,0,0,2,
scooby_state_40a707|31|0 2,0,0,0,0,0,0,0,0,0,0,0,0,0,0,2,
scooby_state_40a78d|18|-1 2,0,0,0,0,0,0,0,0,0,0,0,0,0,0,2,
scooby_state_40a7dd|5|-16 2,0,0,0,0,0,0,0,0,0,0,0,0,0,0,2,
scooby_state_40a7dd|55|39 2,0,0,0,0,0,0,0,0,0,0,0,0,0,0,2,
scooby_state_40a860|10|-14 2,0,0,0,0,0,0,0,0,0,0,0,0,0,0,2,
scooby_state_40a846|16|3 2,0,0,0,0,0,0,0,0,0,0,0,0,0,0,2,
scooby_state_40a74a|7|-16 2,0,0,0,0,0,0,0,0,0,0,0,0,0,0,2,
scooby_state_40a7f6|6|3 2,0,0,0,0,0,0,0,0,0,0,0,0,0,0,2,
scooby_state_40a77d|28|7 2,0,0,0,0,0,0,0,0,0,0,0,0,0,0,2,
scooby_state_40a78d|18|-5 2,0,0,0,0,0,0,0,0,0,0,0,0,0,0,2,
scooby_state_40a707|10|0 2,0,0,0,0,0,0,0,0,0,0,0,0,0,0,2,
scooby_state_40a841|30|5 2,0,0,0,0,0,0,0,0,0,0,0,0,0,0,2,
scooby_state_40a77d|20|12 2,0,0,0,0,0,0,0,0,0,0,0,0,0,0,2,
scooby_state_40a7af|10|3 2,0,0,0,0,0,0,0,0,0,0,0,0,0,0,2,
scooby_state_40a860|21|20 2,0,0,0,0,0,0,0,0,0,0,0,0,0,0,2,
scooby_state_40a707|17|0 2,0,0,0,0,0,0,0,0,0,0,0,0,0,0,2,
scooby_state_40a860|16|3 2,0,0,0,0,0,0,0,0,0,0,0,0,0,0,2,
scooby_state_40a78d|18|3 2,0,0,0,0,0,0,0,0,0,0,0,0,0,0,2,
scooby_state_40a7c4|63|0 2,0,0,0,0,0,0,0,0,0,0,0,0,0,0,2,
scooby_state_40a7dd|4|-9 2,0,0,0,0,0,0,0,0,0,0,0,0,0,0,2,
scooby_state_40a8d7|4|0 0,0,0,0,2,0,0,0,0,0,0,0,0,0,0,2,
scooby_state_40a7dd|58|2 2,0,0,0,0,0,0,0,0,0,0,0,0,0,0,2,
scooby_state_40a77d|28|4 2,0,0,0,0,0,0,0,0,0,0,0,0,0,0,2,
scooby_state_40a7af|8|4 2,0,0,0,0,0,0,0,0,0,0,0,0,0,0,2,
scooby_state_40a8d7|61|0 2,0,0,0,0,0,0,0,0,0,0,0,0,0,0,2,
scooby_state_40a860|50|0 2,0,0,0,0,0,0,0,0,0,0,0,0,0,0,2,
scooby_state_40a78d|5|0 2,0,0,0,0,0,0,0,0,0,0,0,0,0,0,2,
scooby_state_40a860|24|-18 2,0,0,0,0,0,0,0,0,0,0,0,0,0,0,2,
scooby_state_40a77d|24|2 2,0,0,0,0,0,0,0,0,0,0,0,0,0,0,2,
scooby_state_40a8d7|13|0 2,0,0,0,0,0,0,0,0,0,0,0,0,0,0,2,
scooby_state_40a846|2|1 2,0,0,0,0,0,0,0,0,0,0,0,0,0,0,2,
scooby_state_40a791|22|1 2,0,0,0,0,0,0,0,0,0,0,0,0,0,0,2,
scooby_state_40a807|48|42 2,0,0,0,0,0,0,0,0,0,0,0,0,0,0,2,
scooby_state_40a7c4|4|-17 2,0,0,0,0,0,0,0,0,0,0,0,0,0,0,2,
scooby_state_40a710|13|1 2,0,0,0,0,0,0,0,0,0,0,0,0,0,0,2,
scooby_state_40a8f8|29|2 2,0,0,0,0,0,0,0,0,0,0,0,0,0,0,2,
scooby_state_40a7dd|48|-15 2,0,0,0,0,0,0,0,0,0,0,0,0,0,0,2,
scooby_state_40a73a|6|-13 2,0,0,0,0,0,0,0,0,0,0,0,0,0,0,2,
scooby_state_40a78d|18|-10 2,0,0,0,0,0,0,0,0,0,0,0,0,0,0,2,
scooby_state_40a860|19|6 2,0,0,0,0,0,0,0,0,0,0,0,0,0,0,2,
scooby_state_40a860|4|-16 2,0,0,0,0,0,0,0,0,0,0,0,0,0,0,2,
scooby_state_40a710|10|0 2,0,0,0,0,0,0,0,0,0,0,0,0,0,0,2,
scooby_state_40a8f8|21|3 2,0,0,0,0,0,0,0,0,0,0,0,0,0,0,2,
scooby_state_40a846|8|1 2,0,0,0,0,0,0,0,0,0,0,0,0,0,0,2,
scooby_state_40a860|0|-58 2,0,0,0,0,0,0,0,0,0,0,0,0,0,0,2,
scooby_state_40a7af|19|6 2,0,0,0,0,0,0,0,0,0,0,0,0,0,0,2,
scooby_state_40a7f6|63|57 2,0,0,0,0,0,0,0,0,0,0,0,0,0,0,2,
scooby_state_40a710|62|0 2,0,0,0,0,0,0,0,0,0,0,0,0,0,0,2,
scooby_state_40a7c4|5|-23 2,0,0,0,0,0,0,0,0,0,0,0,0,0,0,2,
scooby_state_40a846|7|1 2,0,0,0,0,0,0,0,0,0,0,0,0,0,0,2,
scooby_state_40a846|15|2 2,0,0,0,0,0,0,0,0,0,0,0,0,0,0,2,
scooby_state_40a7a6|47|1 2,0,0,0,0,0,0,0,0,0,0,0,0,0,0,2,
scooby_state_40a7dd|0|-62 2,0,0,0,0,0,0,0,0,0,0,0,0,0,0,2,
scooby_state_40a710|28|1 2,0,0,0,0,0,0,0,0,0,0,0,0,0,0,2,
scooby_state_40a7dd|41|39 2,0,0,0,0,0,0,0,0,0,0,0,0,0,0,2,
scooby_state_40a7af|5|2 2,0,0,0,0,0,0,0,0,0,0,0,0,0,0,2,
scooby_state_40a860|0|-20 2,0,0,0,0,0,0,0,0,0,0,0,0,0,0,2,
scooby_state_40a710|10|1 2,0,0,0,0,0,0,0,0,0,0,0,0,0,0,2,
scooby_state_40a8f8|28|3 2,0,0,0,0,0,0,0,0,0,0,0,0,0,0,2,
scooby_state_40a807|58|53 2,0,0,0,0,0,0,0,0,0,0,0,0,0,0,2,
scooby_state_40a78d|5|-5 2,0,0,0,0,0,0,0,0,0,0,0,0,0,0,2,
scooby_state_40a8d7|59|0 2,0,0,0,0,0,0,0,0,0,0,0,0,0,0,2,
scooby_state_40a7a6|58|1 2,0,0,0,0,0,0,0,0,0,0,0,0,0,0,2,
scooby_state_40a707|6|0 2,0,0,0,0,0,0,0,0,0,0,0,0,0,0,2,
scooby_state_40a78d|13|-11 2,0,0,0,0,0,0,0,0,0,0,0,0,0,0,2,
scooby_state_40a8f8|27|2 2,0,0,0,0,0,0,0,0,0,0,0,0,0,0,2,
scooby_state_40a7dd|17|-38 2,0,0,0,0,0,0,0,0,0,0,0,0,0,0,2,
scooby_state_40a8f8|18|-8 2,0,0,0,0,0,0,0,0,0,0,0,0,0,0,2,
scooby_state_40a7dd|14|12 2,0,0,0,0,0,0,0,0,0,0,0,0,0,0,2,
scooby_state_40a77d|19|6 2,0,0,0,0,0,0,0,0,0,0,0,0,0,0,2,
scooby_state_40a82e|45|23 2,0,0,0,0,0,0,0,0,0,0,0,0,0,0,2,
scooby_state_40a82e|30|5 2,0,0,0,0,0,0,0,0,0,0,0,0,0,0,2,
scooby_state_40a860|8|2 2,0,0,0,0,0,0,0,0,0,0,0,0,0,0,2,
scooby_state_40a78d|6|6 2,0,0,0,0,0,0,0,0,0,0,0,0,0,0,2,
scooby_state_40a7dd|6|-18 2,0,0,0,0,0,0,0,0,0,0,0,0,0,0,2,
scooby_state_40a7af|20|2 2,0,0,0,0,0,0,0,0,0,0,0,0,0,0,2,
scooby_state_40a78d|11|-37 2,0,0,0,0,0,0,0,0,0,0,0,0,0,0,2,
scooby_state_40a7f6|3|-60 2,0,0,0,0,0,0,0,0,0,0,0,0,0,0,2,
scooby_state_40a78d|7|-56 2,0,0,0,0,0,0,0,0,0,0,0,0,0,0,2,
scooby_state_40a7af|13|0 2,0,0,0,0,0,0,0,0,0,0,0,0,0,0,2,
scooby_state_40a7f6|7|-6 2,0,0,0,0,0,0,0,0,0,0,0,0,0,0,2,
scooby_state_40a7f6|4|-28 2,0,0,0,0,0,0,0,0,0,0,0,0,0,0,2,
scooby_state_40a7c4|5|-14 2,0,0,0,0,0,0,0,0,0,0,0,0,0,0,2,
scooby_state_40a7f6|5|2 2,0,0,0,0,0,0,0,0,0,0,0,0,0,0,2,
scooby_state_40a860|36|-19 2,0,0,0,0,0,0,0,0,0,0,0,0,0,0,2,
scooby_state_40a8f8|21|11 2,0,0,0,0,0,0,0,0,0,0,0,0,0,0,2,
scooby_state_40a8f8|18|-10 2,0,0,0,0,0,0,0,0,0,0,0,0,0,0,2,
scooby_state_40a7dd|10|0 2,0,0,0,0,0,0,0,0,0,0,0,0,0,0,2,
scooby_state_40a8f8|27|6 2,0,0,0,0,0,0,0,0,0,0,0,0,0,0,2,
scooby_state_40a7f6|61|41 2,0,0,0,0,0,0,0,0,0,0,0,0,0,0,2,
scooby_state_40a7dd|0|-39 2,0,0,0,0,0,0,0,0,0,0,0,0,0,0,2,
scooby_state_40a77d|24|16 2,0,0,0,0,0,0,0,0,0,0,0,0,0,0,2,
scooby_state_40a7dd|44|19 2,0,0,0,0,0,0,0,0,0,0,0,0,0,0,2,
scooby_state_40a710|23|0 2,0,0,0,0,0,0,0,0,0,0,0,0,0,0,2,
scooby_state_40a710|29|0 2,0,0,0,0,0,0,0,0,0,0,0,0,0,0,2,
scooby_state_40a7af|13|8 2,0,0,0,0,0,0,0,0,0,0,0,0,0,0,2,
scooby_state_40a82e|47|1 2,0,0,0,0,0,0,0,0,0,0,0,0,0,0,2,
scooby_state_40a78d|10|-51 2,0,0,0,0,0,0,0,0,0,0,0,0,0,0,2,
scooby_state_40a77d|12|3 2,0,0,0,0,0,0,0,0,0,0,0,0,0,0,2,
scooby_state_40a846|30|5 2,0,0,0,0,0,0,0,0,0,0,0,0,0,0,2,
scooby_state_40a7c4|0|0 2,0,0,0,0,0,0,0,0,0,0,0,0,0,0,2,
scooby_state_40a73a|4|-27 2,0,0,0,0,0,0,0,0,0,0,0,0,0,0,2,
scooby_state_40a7c4|58|-1 2,0,0,0,0,0,0,0,0,0,0,0,0,0,0,2,
scooby_state_40a7c4|6|-15 2,0,0,0,0,0,0,0,0,0,0,0,0,0,0,2,
scooby_state_40a73a|5|-57 2,0,0,0,0,0,0,0,0,0,0,0,0,0,0,2,
scooby_state_40a78d|9|-54 2,0,0,0,0,0,0,0,0,0,0,0,0,0,0,2,
scooby_state_40a78d|18|-6 2,0,0,0,0,0,0,0,0,0,0,0,0,0,0,2,
scooby_state_40a74a|9|-1 2,0,0,0,0,0,0,0,0,0,0,0,0,0,0,2,
scooby_state_40a846|17|4 2,0,0,0,0,0,0,0,0,0,0,0,0,0,0,2,
scooby_state_40a807|1|-9 2,0,0,0,0,0,0,0,0,0,0,0,0,0,0,2,
scooby_state_40a7f6|2|-8 2,0,0,0,0,0,0,0,0,0,0,0,0,0,0,2,
scooby_state_40a7c4|12|0 2,0,0,0,0,0,0,0,0,0,0,0,0,0,0,2,
scooby_state_40a78d|10|-3 2,0,0,0,0,0,0,0,0,0,0,0,0,0,0,2,
scooby_state_40a8f8|13|-10 2,0,0,0,0,0,0,0,0,0,0,0,0,0,0,2,
scooby_state_40a889|24|0 2,0,0,0,0,0,0,0,0,0,0,0,0,0,0,2,
scooby_state_40a7a6|47|2 2,0,0,0,0,0,0,0,0,0,0,0,0,0,0,2,
scooby_state_40a78d|13|-13 2,0,0,0,0,0,0,0,0,0,0,0,0,0,0,2,
scooby_state_40a8f8|18|-11 2,0,0,0,0,0,0,0,0,0,0,0,0,0,0,2,
scooby_state_40a7dd|62|56 2,0,0,0,0,0,0,0,0,0,0,0,0,0,0,2,
scooby_state_40a7dd|5|4 2,0,0,0,0,0,0,0,0,0,0,0,0,0,0,2,
scooby_state_40a7dd|2|-38 2,0,0,0,0,0,0,0,0,0,0,0,0,0,0,2,
scooby_state_40a7dd|25|0 2,0,0,0,0,0,0,0,0,0,0,0,0,0,0,2,
scooby_state_40a8f8|18|14 2,0,0,0,0,0,0,0,0,0,0,0,0,0,0,2,
scooby_state_40a707|13|0 2,0,0,0,0,0,0,0,0,0,0,0,0,0,0,2,
scooby_state_40a73a|4|-16 2,0,0,0,0,0,0,0,0,0,0,0,0,0,0,2,
scooby_state_40a7c4|8|-13 2,0,0,0,0,0,0,0,0,0,0,0,0,0,0,2,
scooby_state_40a77d|21|-37 2,0,0,0,0,0,0,0,0,0,0,0,0,0,0,2,
scooby_state_40a7af|6|1 2,0,0,0,0,0,0,0,0,0,0,0,0,0,0,2,
scooby_state_40a807|0|-13 2,0,0,0,0,0,0,0,0,0,0,0,0,0,0,2,
scooby_state_40a7af|4|0 2,0,0,0,0,0,0,0,0,0,0,0,0,0,0,2,
scooby_state_40a846|26|1 2,0,0,0,0,0,0,0,0,0,0,0,0,0,0,2,
scooby_state_40a707|22|0 2,0,0,0,0,0,0,0,0,0,0,0,0,0,0,2,
scooby_state_40a846|9|3 2,0,0,0,0,0,0,0,0,0,0,0,0,0,0,2,
scooby_state_40a860|47|2 2,0,0,0,0,0,0,0,0,0,0,0,0,0,0,2,
scooby_state_40a8f8|17|2 2,0,0,0,0,0,0,0,0,0,0,0,0,0,0,2,
scooby_state_40a7dd|47|2 2,0,0,0,0,0,0,0,0,0,0,0,0,0,0,2,
scooby_state_40a860|50|2 2,0,0,0,0,0,0,0,0,0,0,0,0,0,0,2,
scooby_state_40a860|47|26 2,0,0,0,0,0,0,0,0,0,0,0,0,0,0,2,
scooby_state_40a860|0|-10 2,0,0,0,0,0,0,0,0,0,0,0,0,0,0,2,
scooby_state_40a710|0|0 2,0,0,0,0,0,0,0,0,0,0,0,0,0,0,2,
scooby_state_40a860|0|-32 2,0,0,0,0,0,0,0,0,0,0,0,0,0,0,2,
scooby_state_40a841|22|12 2,0,0,0,0,0,0,0,0,0,0,0,0,0,0,2,
scooby_state_40a7dd|8|2 2,0,0,0,0,0,0,0,0,0,0,0,0,0,0,2,
scooby_state_40a841|29|7 2,0,0,0,0,0,0,0,0,0,0,0,0,0,0,2,
scooby_state_40a73a|4|-45 2,0,0,0,0,0,0,0,0,0,0,0,0,0,0,2,
scooby_state_40a7a6|46|1 2,0,0,0,0,0,0,0,0,0,0,0,0,0,0,2,
scooby_state_40a8a0|5|2 2,0,0,0,0,0,0,0,0,0,0,0,0,0,0,2,
scooby_state_40a710|31|1 2,0,0,0,0,0,0,0,0,0,0,0,0,0,0,2,
scooby_state_40a7c4|5|-18 2,0,0,0,0,0,0,0,0,0,0,0,0,0,0,2,
scooby_state_40a7dd|58|0 2,0,0,0,0,0,0,0,0,0,0,0,0,0,0,2,
scooby_state_40a846|10|2 2,0,0,0,0,0,0,0,0,0,0,0,0,0,0,2,
scooby_state_40a82e|46|1 2,0,0,0,0,0,0,0,0,0,0,0,0,0,0,2,
scooby_state_40a78d|10|-8 2,0,0,0,0,0,0,0,0,0,0,0,0,0,0,2,
scooby_state_40a78d|8|4 2,0,0,0,0,0,0,0,0,0,0,0,0,0,0,2,
scooby_state_40a707|12|0 2,0,0,0,0,0,0,0,0,0,0,0,0,0,0,2,
scooby_state_40a78d|20|0 2,0,0,0,0,0,0,0,0,0,0,0,0,0,0,2,
scooby_state_40a8f8|20|-1 2,0,0,0,0,0,0,0,0,0,0,0,0,0,0,2,
scooby_state_40a77d|13|5 2,0,0,0,0,0,0,0,0,0,0,0,0,0,0,2,
scooby_state_40a860|36|0 2,0,0,0,0,0,0,0,0,0,0,0,0,0,0,2,
scooby_state_40a7dd|55|34 2,0,0,0,0,0,0,0,0,0,0,0,0,0,0,2,
scooby_state_40a7f6|10|4 2,0,0,0,0,0,0,0,0,0,0,0,0,0,0,2,
scooby_state_40a77d|10|0 2,0,0,0,0,0,0,0,0,0,0,0,0,0,0,2,
scooby_state_40a707|21|1 2,0,0,0,0,0,0,0,0,0,0,0,0,0,0,2,
scooby_state_40a7f6|5|-5 2,0,0,0,0,0,0,0,0,0,0,0,0,0,0,2,
scooby_state_40a707|8|1 2,0,0,0,0,0,0,0,0,0,0,0,0,0,0,2,
scooby_state_40a860|58|0 2,0,0,0,0,0,0,0,0,0,0,0,0,0,0,2,
scooby_state_40a7dd|40|0 2,0,0,0,0,0,0,0,0,0,0,0,0,0,0,2,
scooby_state_40a7dd|0|-2 2,0,0,0,0,0,0,0,0,0,0,0,0,0,0,2,
scooby_state_40a710|17|0 2,0,0,0,0,0,0,0,0,0,0,0,0,0,0,2,
scooby_state_40a860|0|-5 2,0,0,0,0,0,0,0,0,0,0,0,0,0,0,2,
scooby_state_40a7af|59|38 2,0,0,0,0,0,0,0,0,0,0,0,0,0,0,2,
scooby_state_40a7af|60|1 2,0,0,0,0,0,0,0,0,0,0,0,0,0,0,2,
scooby_state_40a846|62|1 2,0,0,0,0,0,0,0,0,0,0,0,0,0,0,2,
scooby_state_40a77d|21|16 2,0,0,0,0,0,0,0,0,0,0,0,0,0,0,2,
scooby_state_40a7af|63|1 2,0,0,0,0,0,0,0,0,0,0,0,0,0,0,2,
scooby_state_40a7f6|1|-9 2,0,0,0,0,0,0,0,0,0,0,0,0,0,0,2,
scooby_state_40a7c4|0|-25 2,0,0,0,0,0,0,0,0,0,0,0,0,0,0,2,
scooby_state_40a7dd|61|57 2,0,0,0,0,0,0,0,0,0,0,0,0,0,0,2,
scooby_state_40a7f6|13|-19 2,0,0,0,0,0,0,0,0,0,0,0,0,0,0,2,
scooby_state_40a7dd|25|-38 2,0,0,0,0,0,0,0,0,0,0,0,0,0,0,2,
scooby_state_40a889|63|1 2,0,0,0,0,0,0,0,0,0,0,0,0,0,0,2,
scooby_state_40a7c4|4|-1 2,0,0,0,0,0,0,0,0,0,0,0,0,0,0,2,
scooby_state_40a7dd|0|-47 2,0,0,0,0,0,0,0,0,0,0,0,0,0,0,2,
scooby_state_40a78d|4|-18 2,0,0,0,0,0,0,0,0,0,0,0,0,0,0,2,
scooby_state_40a707|27|1 2,0,0,0,0,0,0,0,0,0,0,0,0,0,0,2,
scooby_state_40a73a|4|-19 2,0,0,0,0,0,0,0,0,0,0,0,0,0,0,2,
scooby_state_40a78d|4|-54 2,0,0,0,0,0,0,0,0,0,0,0,0,0,0,2,
scooby_state_40a707|4|1 2,0,0,0,0,0,0,0,0,0,0,0,0,0,0,2,
scooby_state_40a7f6|61|1 2,0,0,0,0,0,0,0,0,0,0,0,0,0,0,2,
scooby_state_40a7af|59|1 2,0,0,0,0,0,0,0,0,0,0,0,0,0,0,2,
scooby_state_40a7f6|6|-26 2,0,0,0,0,0,0,0,0,0,0,0,0,0,0,2,
scooby_state_40a82e|30|21 2,0,0,0,0,0,0,0,0,0,0,0,0,0,0,2,
scooby_state_40a860|4|-9 2,0,0,0,0,0,0,0,0,0,0,0,0,0,0,2,
scooby_state_40a7c4|10|-13 2,0,0,0,0,0,0,0,0,0,0,0,0,0,0,2,
scooby_state_40a77d|18|4 2,0,0,0,0,0,0,0,0,0,0,0,0,0,0,2,
scooby_state_40a7a6|58|27 2,0,0,0,0,0,0,0,0,0,0,0,0,0,0,2,
scooby_state_40a8f8|19|6 2,0,0,0,0,0,0,0,0,0,0,0,0,0,0,2,
scooby_state_40a707|5|0 2,0,0,0,0,0,0,0,0,0,0,0,0,0,0,2,
scooby_state_40a889|18|0 2,0,0,0,0,0,0,0,0,0,0,0,0,0,0,2,
scooby_state_40a7dd|32|-31 2,0,0,0,0,0,0,0,0,0,0,0,0,0,0,2,
scooby_state_40a889|5|1 2,0,0,0,0,0,0,0,0,0,0,0,0,0,0,2,
scooby_state_40a7c4|3|-19 2,0,0,0,0,0,0,0,0,0,0,0,0,0,0,2,
scooby_state_40a82e|30|9 2,0,0,0,0,0,0,0,0,0,0,0,0,0,0,2,
scooby_state_40a707|26|0 2,0,0,0,0,0,0,0,0,0,0,0,0,0,0,2,
scooby_state_40a860|0|-57 2,0,0,0,0,0,0,0,0,0,0,0,0,0,0,2,
scooby_state_40a7dd|33|20 2,0,0,0,0,0,0,0,0,0,0,0,0,0,0,2,
scooby_state_40a8f8|17|-6 2,0,0,0,0,0,0,0,0,0,0,0,0,0,0,2,
scooby_state_40a7c4|7|2 2,0,0,0,0,0,0,0,0,0,0,0,0,0,0,2,
scooby_state_40a889|12|1 2,0,0,0,0,0,0,0,0,0,0,0,0,0,0,2,
scooby_state_40a7dd|10|-18 2,0,0,0,0,0,0,0,0,0,0,0,0,0,0,2,
scooby_state_40a77d|18|-13 2,0,0,0,0,0,0,0,0,0,0,0,0,0,0,2,
scooby_state_40a78d|7|2 2,0,0,0,0,0,0,0,0,0,0,0,0,0,0,2,
scooby_state_40a846|16|1 2,0,0,0,0,0,0,0,0,0,0,0,0,0,0,2,
scooby_state_40a8f8|19|-2 2,0,0,0,0,0,0,0,0,0,0,0,0,0,0,2,
scooby_state_40a889|1|0 2,0,0,0,0,0,0,0,0,0,0,0,0,0,0,2,
scooby_state_40a860|58|-3 2,0,0,0,0,0,0,0,0,0,0,0,0,0,0,2,
scooby_state_40a7dd|47|0 2,0,0,0,0,0,0,0,0,0,0,0,0,0,0,2,
scooby_state_40a7f6|1|-31 2,0,0,0,0,0,0,0,0,0,0,0,0,0,0,2,
scooby_state_40a807|49|43 2,0,0,0,0,0,0,0,0,0,0,0,0,0,0,2,
scooby_state_40a7dd|14|4 2,0,0,0,0,0,0,0,0,0,0,0,0,0,0,2,
scooby_state_40a841|29|2 2,0,0,0,0,0,0,0,0,0,0,0,0,0,0,2,
scooby_state_40a807|58|49 2,0,0,0,0,0,0,0,0,0,0,0,0,0,0,2,
scooby_state_40a846|23|2 2,0,0,0,0,0,0,0,0,0,0,0,0,0,0,2,
scooby_state_40a74a|8|-13 2,0,0,0,0,0,0,0,0,0,0,0,0,0,0,2,
scooby_state_40a7af|2|0 2,0,0,0,0,0,0,0,0,0,0,0,0,0,0,2,
scooby_state_40a8f8|18|10 2,0,0,0,0,0,0,0,0,0,0,0,0,0,0,2,
scooby_state_40a846|23|1 2,0,0,0,0,0,0,0,0,0,0,0,0,0,0,2,
scooby_state_40a7c4|4|-27 2,0,0,0,0,0,0,0,0,0,0,0,0,0,0,2,
scooby_state_40a7dd|22|21 2,0,0,0,0,0,0,0,0,0,0,0,0,0,0,2,
scooby_state_40a78d|5|-14 2,0,0,0,0,0,0,0,0,0,0,0,0,0,0,2,
scooby_state_40a710|3|0 2,0,0,0,0,0,0,0,0,0,0,0,0,0,0,2,
scooby_state_40a82e|30|23 2,0,0,0,0,0,0,0,0,0,0,0,0,0,0,2,
scooby_state_40a710|58|0 2,0,0,0,0,0,0,0,0,0,0,0,0,0,0,2,
scooby_state_40a8a0|1|0 2,0,0,0,0,0,0,0,0,0,0,0,0,0,0,2,
scooby_state_40a7dd|13|-17 2,0,0,0,0,0,0,0,0,0,0,0,0,0,0,2,
scooby_state_40a77d|28|3 2,0,0,0,0,0,0,0,0,0,0,0,0,0,0,2,
scooby_state_40a707|58|0 2,0,0,0,0,0,0,0,0,0,0,0,0,0,0,2,
scooby_state_40a860|18|-18 2,0,0,0,0,0,0,0,0,0,0,0,0,0,0,2,
scooby_state_40a78d|5|-8 2,0,0,0,0,0,0,0,0,0,0,0,0,0,0,2,
scooby_state_40a77d|19|10 2,0,0,0,0,0,0,0,0,0,0,0,0,0,0,2,
scooby_state_40a7c4|0|-13 2,0,0,0,0,0,0,0,0,0,0,0,0,0,0,2,
scooby_state_40a7a6|45|22 2,0,0,0,0,0,0,0,0,0,0,0,0,0,0,2,
scooby_state_40a7dd|17|4 2,0,0,0,0,0,0,0,0,0,0,0,0,0,0,2,
scooby_state_40a846|58|0 2,0,0,0,0,0,0,0,0,0,0,0,0,0,0,2,
scooby_state_40a846|22|1 2,0,0,0,0,0,0,0,0,0,0,0,0,0,0,2,
scooby_state_40a7a6|48|38 2,0,0,0,0,0,0,0,0,0,0,0,0,0,0,2,
scooby_state_40a82e|31|23 2,0,0,0,0,0,0,0,0,0,0,0,0,0,0,2,
scooby_state_40a860|48|43 2,0,0,0,0,0,0,0,0,0,0,0,0,0,0,2,
scooby_state_40a78d|18|4 2,0,0,0,0,0,0,0,0,0,0,0,0,0,0,2,
scooby_state_40a8f8|28|1 2,0,0,0,0,0,0,0,0,0,0,0,0,0,0,2,
scooby_state_40a8f8|21|-2 2,0,0,0,0,0,0,0,0,0,0,0,0,0,0,2,
scooby_state_40a77d|10|-21 2,0,0,0,0,0,0,0,0,0,0,0,0,0,0,2,
scooby_state_40a860|59|-4 2,0,0,0,0,0,0,0,0,0,0,0,0,0,0,2,
scooby_state_40a7dd|48|46 2,0,0,0,0,0,0,0,0,0,0,0,0,0,0,2,
scooby_state_40a8a0|3|1 2,0,0,0,0,0,0,0,0,0,0,0,0,0,0,2,
scooby_state_40a7dd|14|9 2,0,0,0,0,0,0,0,0,0,0,0,0,0,0,2,
scooby_state_40a707|11|0 2,0,0,0,0,0,0,0,0,0,0,0,0,0,0,2,
scooby_state_40a846|8|3 2,0,0,0,0,0,0,0,0,0,0,0,0,0,0,2,
scooby_state_40a807|62|54 2,0,0,0,0,0,0,0,0,0,0,0,0,0,0,2,
scooby_state_40a7dd|0|-31 2,0,0,0,0,0,0,0,0,0,0,0,0,0,0,2,
scooby_state_40a889|59|0 2,0,0,0,0,0,0,0,0,0,0,0,0,0,0,2,
scooby_state_40a8f8|31|0 2,0,0,0,0,0,0,0,0,0,0,0,0,0,0,2,
scooby_state_40a8a0|3|0 2,0,0,0,0,0,0,0,0,0,0,0,0,0,0,2,
scooby_state_40a807|57|49 2,0,0,0,0,0,0,0,0,0,0,0,0,0,0,2,
scooby_state_40a846|2|2 2,0,0,0,0,0,0,0,0,0,0,0,0,0,0,2,
scooby_state_40a707|49|0 2,0,0,0,0,0,0,0,0,0,0,0,0,0,0,2,
scooby_state_40a77d|21|3 2,0,0,0,0,0,0,0,0,0,0,0,0,0,0,2,
scooby_state_40a7af|28|1 2,0,0,0,0,0,0,0,0,0,0,0,0,0,0,2,
scooby_state_40a8f8|18|-5 2,0,0,0,0,0,0,0,0,0,0,0,0,0,0,2,
scooby_state_40a860|5|-19 2,0,0,0,0,0,0,0,0,0,0,0,0,0,0,2,
scooby_state_40a7af|26|5 2,0,0,0,0,0,0,0,0,0,0,0,0,0,0,2,
scooby_state_40a860|61|19 2,0,0,0,0,0,0,0,0,0,0,0,0,0,0,2,
scooby_state_40a846|6|1 2,0,0,0,0,0,0,0,0,0,0,0,0,0,0,2,
scooby_state_40a860|28|-35 2,0,0,0,0,0,0,0,0,0,0,0,0,0,0,2,
scooby_state_40a8d7|60|0 2,0,0,0,0,0,0,0,0,0,0,0,0,0,0,2,
scooby_state_40a841|26|6 2,0,0,0,0,0,0,0,0,0,0,0,0,0,0,2,
scooby_state_40a710|7|1 2,0,0,0,0,0,0,0,0,0,0,0,0,0,0,2,
scooby_state_40a7f6|4|-56 2,0,0,0,0,0,0,0,0,0,0,0,0,0,0,2,
scooby_state_40a860|36|-27 2,0,0,0,0,0,0,0,0,0,0,0,0,0,0,2,
scooby_state_40a846|12|0 2,0,0,0,0,0,0,0,0,0,0,0,0,0,0,2,
scooby_state_40a7af|21|2 2,0,0,0,0,0,0,0,0,0,0,0,0,0,0,2,
scooby_state_40a841|28|3 2,0,0,0,0,0,0,0,0,0,0,0,0,0,0,2,
scooby_state_40a860|10|-17 2,0,0,0,0,0,0,0,0,0,0,0,0,0,0,2,
scooby_state_40a73a|5|-22 2,0,0,0,0,0,0,0,0,0,0,0,0,0,0,2,
scooby_state_40a73a|6|2 2,0,0,0,0,0,0,0,0,0,0,0,0,0,0,2,
scooby_state_40a7dd|58|3 2,0,0,0,0,0,0,0,0,0,0,0,0,0,0,2,
scooby_state_40a7f6|60|57 2,0,0,0,0,0,0,0,0,0,0,0,0,0,0,2,
scooby_state_40a846|8|0 2,0,0,0,0,0,0,0,0,0,0,0,0,0,0,2,
scooby_state_40a78d|12|2 2,0,0,0,0,0,0,0,0,0,0,0,0,0,0,2,
scooby_state_40a7af|21|3 2,0,0,0,0,0,0,0,0,0,0,0,0,0,0,2,
scooby_state_40a707|19|0 2,0,0,0,0,0,0,0,0,0,0,0,0,0,0,2,
scooby_state_40a8f8|21|13 2,0,0,0,0,0,0,0,0,0,0,0,0,0,0,2,
scooby_state_40a889|9|1 2,0,0,0,0,0,0,0,0,0,0,0,0,0,0,2,
scooby_state_40a7dd|9|2 2,0,0,0,0,0,0,0,0,0,0,0,0,0,0,2,
scooby_state_40a7f6|3|-6 1,0,0,0,0,0,0,0,0,0,0,0,0,0,0,1,
scooby_state_40a70c|7|-1 1,0,0,0,0,0,0,0,0,0,0,0,0,0,0,1,
scooby_state_40a833|12|1 1,0,0,0,0,0,0,0,0,0,0,0,0,0,0,1,
scooby_state_40a715|36|1 1,0,0,0,0,0,0,0,0,0,0,0,0,0,0,1,
scooby_state_40a841|30|-33 1,0,0,0,0,0,0,0,0,0,0,0,0,0,0,1,
scooby_state_40a74a|8|0 1,0,0,0,0,0,0,0,0,0,0,0,0,0,0,1,
scooby_state_40a707|17|1 1,0,0,0,0,0,0,0,0,0,0,0,0,0,0,1,
scooby_state_40a715|40|1 1,0,0,0,0,0,0,0,0,0,0,0,0,0,0,1,
scooby_state_40a889|62|1 1,0,0,0,0,0,0,0,0,0,0,0,0,0,0,1,
scooby_state_40a889|50|1 1,0,0,0,0,0,0,0,0,0,0,0,0,0,0,1,
scooby_state_40a707|23|1 1,0,0,0,0,0,0,0,0,0,0,0,0,0,0,1,
scooby_state_40a7dd|45|-13 1,0,0,0,0,0,0,0,0,0,0,0,0,0,0,1,
scooby_state_40a7c4|10|0 1,0,0,0,0,0,0,0,0,0,0,0,0,0,0,1,
scooby_state_40a7a6|58|48 1,0,0,0,0,0,0,0,0,0,0,0,0,0,0,1,
scooby_state_40a707|25|1 1,0,0,0,0,0,0,0,0,0,0,0,0,0,0,1,
scooby_state_40a807|59|52 1,0,0,0,0,0,0,0,0,0,0,0,0,0,0,1,
scooby_state_40a707|15|0 1,0,0,0,0,0,0,0,0,0,0,0,0,0,0,1,
scooby_state_40a860|13|-37 1,0,0,0,0,0,0,0,0,0,0,0,0,0,0,1,
scooby_state_40a7dd|37|21 1,0,0,0,0,0,0,0,0,0,0,0,0,0,0,1,
scooby_state_40a7af|40|1 1,0,0,0,0,0,0,0,0,0,0,0,0,0,0,1,
scooby_state_40a833|13|1 1,0,0,0,0,0,0,0,0,0,0,0,0,0,0,1,
scooby_state_40a889|21|2 1,0,0,0,0,0,0,0,0,0,0,0,0,0,0,1,
scooby_state_40a82e|39|7 1,0,0,0,0,0,0,0,0,0,0,0,0,0,0,1,
scooby_state_40a846|59|1 1,0,0,0,0,0,0,0,0,0,0,0,0,0,0,1,
scooby_state_40a82e|38|1 1,0,0,0,0,0,0,0,0,0,0,0,0,0,0,1,
scooby_state_40a841|32|14 1,0,0,0,0,0,0,0,0,0,0,0,0,0,0,1,
scooby_state_40a710|47|1 1,0,0,0,0,0,0,0,0,0,0,0,0,0,0,1,
scooby_state_40a7c4|60|-1 1,0,0,0,0,0,0,0,0,0,0,0,0,0,0,1,
scooby_state_40a841|27|19 1,0,0,0,0,0,0,0,0,0,0,0,0,0,0,1,
scooby_state_40a7dd|4|-2 1,0,0,0,0,0,0,0,0,0,0,0,0,0,0,1,
scooby_state_40a889|21|0 1,0,0,0,0,0,0,0,0,0,0,0,0,0,0,1,
scooby_state_40a7a6|50|2 1,0,0,0,0,0,0,0,0,0,0,0,0,0,0,1,
scooby_state_40a710|36|1 1,0,0,0,0,0,0,0,0,0,0,0,0,0,0,1,
scooby_state_40a82e|42|19 1,0,0,0,0,0,0,0,0,0,0,0,0,0,0,1,
scooby_state_40a82e|45|38 1,0,0,0,0,0,0,0,0,0,0,0,0,0,0,1,
scooby_state_40a7a6|43|38 1,0,0,0,0,0,0,0,0,0,0,0,0,0,0,1,
scooby_state_40a82e|45|5 1,0,0,0,0,0,0,0,0,0,0,0,0,0,0,1,
scooby_state_40a7a6|48|28 1,0,0,0,0,0,0,0,0,0,0,0,0,0,0,1,
scooby_state_40a73a|5|-21 1,0,0,0,0,0,0,0,0,0,0,0,0,0,0,1,
scooby_state_40a82e|39|-1 1,0,0,0,0,0,0,0,0,0,0,0,0,0,0,1,
scooby_state_40a77d|10|-3 1,0,0,0,0,0,0,0,0,0,0,0,0,0,0,1,
scooby_state_40a7dd|18|2 1,0,0,0,0,0,0,0,0,0,0,0,0,0,0,1,
scooby_state_40a710|51|1 1,0,0,0,0,0,0,0,0,0,0,0,0,0,0,1,
scooby_state_40a7dd|3|-44 1,0,0,0,0,0,0,0,0,0,0,0,0,0,0,1,
scooby_state_40a860|35|19 1,0,0,0,0,0,0,0,0,0,0,0,0,0,0,1,
scooby_state_40a78d|13|0 1,0,0,0,0,0,0,0,0,0,0,0,0,0,0,1,
scooby_state_40a7f6|63|19 1,0,0,0,0,0,0,0,0,0,0,0,0,0,0,1,
scooby_state_40a7c4|5|3 1,0,0,0,0,0,0,0,0,0,0,0,0,0,0,1,
scooby_state_40a807|48|27 1,0,0,0,0,0,0,0,0,0,0,0,0,0,0,1,
scooby_state_40a74a|9|-12 1,0,0,0,0,0,0,0,0,0,0,0,0,0,0,1,
scooby_state_40a707|2|1 1,0,0,0,0,0,0,0,0,0,0,0,0,0,0,1,
scooby_state_40a73a|4|-14 1,0,0,0,0,0,0,0,0,0,0,0,0,0,0,1,
scooby_state_40a7af|2|-17 1,0,0,0,0,0,0,0,0,0,0,0,0,0,0,1,
scooby_state_40a8d7|8|0 0,0,0,0,0,0,0,1,0,0,0,0,0,0,0,1,
scooby_state_40a860|25|20 1,0,0,0,0,0,0,0,0,0,0,0,0,0,0,1,
scooby_state_40a7a6|51|19 1,0,0,0,0,0,0,0,0,0,0,0,0,0,0,1,
scooby_state_40a78d|13|-15 1,0,0,0,0,0,0,0,0,0,0,0,0,0,0,1,
scooby_state_40a7af|39|0 1,0,0,0,0,0,0,0,0,0,0,0,0,0,0,1,
scooby_state_40a78d|18|-43 1,0,0,0,0,0,0,0,0,0,0,0,0,0,0,1,
scooby_state_40a7a6|55|19 1,0,0,0,0,0,0,0,0,0,0,0,0,0,0,1,
scooby_state_40a936|12|2 1,0,0,0,0,0,0,0,0,0,0,0,0,0,0,1,
scooby_state_40a841|24|6 1,0,0,0,0,0,0,0,0,0,0,0,0,0,0,1,
scooby_state_40a7f6|3|-19 1,0,0,0,0,0,0,0,0,0,0,0,0,0,0,1,
scooby_state_40a715|57|1 1,0,0,0,0,0,0,0,0,0,0,0,0,0,0,1,
scooby_state_40a860|39|-3 1,0,0,0,0,0,0,0,0,0,0,0,0,0,0,1,
scooby_state_40a846|28|1 1,0,0,0,0,0,0,0,0,0,0,0,0,0,0,1,
scooby_state_40a77d|12|8 1,0,0,0,0,0,0,0,0,0,0,0,0,0,0,1,
scooby_state_40a7c4|7|-16 1,0,0,0,0,0,0,0,0,0,0,0,0,0,0,1,
scooby_state_40a710|29|1 1,0,0,0,0,0,0,0,0,0,0,0,0,0,0,1,
scooby_state_40a7c4|4|-15 1,0,0,0,0,0,0,0,0,0,0,0,0,0,0,1,
scooby_state_40a78d|18|-11 1,0,0,0,0,0,0,0,0,0,0,0,0,0,0,1,
scooby_state_40a846|19|6 1,0,0,0,0,0,0,0,0,0,0,0,0,0,0,1,
scooby_state_40a82e|35|19 1,0,0,0,0,0,0,0,0,0,0,0,0,0,0,1,
scooby_state_40a715|50|1 1,0,0,0,0,0,0,0,0,0,0,0,0,0,0,1,
scooby_state_40a8a0|0|0 1,0,0,0,0,0,0,0,0,0,0,0,0,0,0,1,
scooby_state_40a77d|22|-37 1,0,0,0,0,0,0,0,0,0,0,0,0,0,0,1,
scooby_state_40a7c4|6|-1 1,0,0,0,0,0,0,0,0,0,0,0,0,0,0,1,
scooby_state_40a710|23|1 1,0,0,0,0,0,0,0,0,0,0,0,0,0,0,1,
scooby_state_40a7c4|12|3 1,0,0,0,0,0,0,0,0,0,0,0,0,0,0,1,
scooby_state_40a7af|16|3 1,0,0,0,0,0,0,0,0,0,0,0,0,0,0,1,
scooby_state_40a7a6|53|19 1,0,0,0,0,0,0,0,0,0,0,0,0,0,0,1,
scooby_state_40a7c4|11|3 1,0,0,0,0,0,0,0,0,0,0,0,0,0,0,1,
scooby_state_40a860|4|-5 1,0,0,0,0,0,0,0,0,0,0,0,0,0,0,1,
scooby_state_40a8a0|2|1 1,0,0,0,0,0,0,0,0,0,0,0,0,0,0,1,
scooby_state_40a77d|16|2 1,0,0,0,0,0,0,0,0,0,0,0,0,0,0,1,
scooby_state_40a889|47|1 1,0,0,0,0,0,0,0,0,0,0,0,0,0,0,1,
scooby_state_40a78d|12|-21 1,0,0,0,0,0,0,0,0,0,0,0,0,0,0,1,
scooby_state_40a889|27|1 1,0,0,0,0,0,0,0,0,0,0,0,0,0,0,1,
scooby_state_40a7dd|25|-37 1,0,0,0,0,0,0,0,0,0,0,0,0,0,0,1,
scooby_state_40a846|5|1 1,0,0,0,0,0,0,0,0,0,0,0,0,0,0,1,
scooby_state_40a7dd|58|22 1,0,0,0,0,0,0,0,0,0,0,0,0,0,0,1,
scooby_state_40a77d|28|-18 1,0,0,0,0,0,0,0,0,0,0,0,0,0,0,1,
scooby_state_40a707|52|1 1,0,0,0,0,0,0,0,0,0,0,0,0,0,0,1,
scooby_state_40a7a6|48|9 1,0,0,0,0,0,0,0,0,0,0,0,0,0,0,1,
scooby_state_40a7a6|42|19 1,0,0,0,0,0,0,0,0,0,0,0,0,0,0,1,
scooby_state_40a7f9|19|18 1,0,0,0,0,0,0,0,0,0,0,0,0,0,0,1,
scooby_state_40a841|37|19 1,0,0,0,0,0,0,0,0,0,0,0,0,0,0,1,
scooby_state_40a889|44|1 1,0,0,0,0,0,0,0,0,0,0,0,0,0,0,1,
scooby_state_40a841|36|19 1,0,0,0,0,0,0,0,0,0,0,0,0,0,0,1,
scooby_state_40a715|30|1 1,0,0,0,0,0,0,0,0,0,0,0,0,0,0,1,
scooby_state_40a7dd|2|-37 1,0,0,0,0,0,0,0,0,0,0,0,0,0,0,1,
scooby_state_40a889|17|1 1,0,0,0,0,0,0,0,0,0,0,0,0,0,0,1,
scooby_state_40a72b|20|1 1,0,0,0,0,0,0,0,0,0,0,0,0,0,0,1,
scooby_state_40a707|10|1 1,0,0,0,0,0,0,0,0,0,0,0,0,0,0,1,
scooby_state_40a78d|4|-24 1,0,0,0,0,0,0,0,0,0,0,0,0,0,0,1,
scooby_state_40a7dd|6|-37 1,0,0,0,0,0,0,0,0,0,0,0,0,0,0,1,
[...]
scooby_state_40a7c4|10|-19 1,0,0,0,0,0,0,0,0,0,0,0,0,0,0,1,
scooby_state_40a82e|45|19 1,0,0,0,0,0,0,0,0,0,0,0,0,0,0,1,
scooby_state_40a715|2|1 1,0,0,0,0,0,0,0,0,0,0,0,0,0,0,1,
scooby_state_40a841|25|2 1,0,0,0,0,0,0,0,0,0,0,0,0,0,0,1,
scooby_state_40a807|51|19 1,0,0,0,0,0,0,0,0,0,0,0,0,0,0,1,
scooby_state_40a841|35|19 1,0,0,0,0,0,0,0,0,0,0,0,0,0,0,1,
scooby_state_40a841|31|21 1,0,0,0,0,0,0,0,0,0,0,0,0,0,0,1,
scooby_state_40a7dd|16|0 1,0,0,0,0,0,0,0,0,0,0,0,0,0,0,1,
scooby_state_40a80b|19|18 1,0,0,0,0,0,0,0,0,0,0,0,0,0,0,1,
scooby_state_40a889|34|0 1,0,0,0,0,0,0,0,0,0,0,0,0,0,0,1,
scooby_state_40a78d|20|-43 1,0,0,0,0,0,0,0,0,0,0,0,0,0,0,1,
scooby_state_40a807|0|-63 1,0,0,0,0,0,0,0,0,0,0,0,0,0,0,1,
scooby_state_40a889|56|1 1,0,0,0,0,0,0,0,0,0,0,0,0,0,0,1,
scooby_state_40a889|4|0 1,0,0,0,0,0,0,0,0,0,0,0,0,0,0,1,
scooby_state_40a707|49|1 1,0,0,0,0,0,0,0,0,0,0,0,0,0,0,1,
scooby_state_40a860|45|40 1,0,0,0,0,0,0,0,0,0,0,0,0,0,0,1,
scooby_state_40a7f6|61|2 1,0,0,0,0,0,0,0,0,0,0,0,0,0,0,1,
scooby_state_40a7dd|51|46 1,0,0,0,0,0,0,0,0,0,0,0,0,0,0,1,
scooby_state_40a7dd|45|43 1,0,0,0,0,0,0,0,0,0,0,0,0,0,0,1,
scooby_state_40a7a6|48|26 1,0,0,0,0,0,0,0,0,0,0,0,0,0,0,1,
scooby_state_40a74a|7|-20 1,0,0,0,0,0,0,0,0,0,0,0,0,0,0,1,
scooby_state_40a807|58|2 1,0,0,0,0,0,0,0,0,0,0,0,0,0,0,1,
scooby_state_40a707|24|0 1,0,0,0,0,0,0,0,0,0,0,0,0,0,0,1,
scooby_state_40a7a6|56|2 1,0,0,0,0,0,0,0,0,0,0,0,0,0,0,1,
scooby_state_40a807|61|52 1,0,0,0,0,0,0,0,0,0,0,0,0,0,0,1,
scooby_state_40a7a6|58|2 1,0,0,0,0,0,0,0,0,0,0,0,0,0,0,1,
scooby_state_40a707|43|1 1,0,0,0,0,0,0,0,0,0,0,0,0,0,0,1,
scooby_state_40a73a|6|-52 1,0,0,0,0,0,0,0,0,0,0,0,0,0,0,1,
scooby_state_40a77d|24|19 1,0,0,0,0,0,0,0,0,0,0,0,0,0,0,1,
scooby_state_40a846|11|6 1,0,0,0,0,0,0,0,0,0,0,0,0,0,0,1,
scooby_state_40a77d|18|12 1,0,0,0,0,0,0,0,0,0,0,0,0,0,0,1,
scooby_state_40a715|28|1 1,0,0,0,0,0,0,0,0,0,0,0,0,0,0,1,
scooby_state_40a710|16|0 1,0,0,0,0,0,0,0,0,0,0,0,0,0,0,1,
scooby_state_40a860|25|3 1,0,0,0,0,0,0,0,0,0,0,0,0,0,0,1,
scooby_state_40a7af|46|1 1,0,0,0,0,0,0,0,0,0,0,0,0,0,0,1,
scooby_state_40a710|48|0 1,0,0,0,0,0,0,0,0,0,0,0,0,0,0,1,
scooby_state_40a7dd|62|57 1,0,0,0,0,0,0,0,0,0,0,0,0,0,0,1,
scooby_state_40a889|8|1 1,0,0,0,0,0,0,0,0,0,0,0,0,0,0,1,
scooby_state_40a846|25|0 1,0,0,0,0,0,0,0,0,0,0,0,0,0,0,1,
scooby_state_40a889|53|1 1,0,0,0,0,0,0,0,0,0,0,0,0,0,0,1,
scooby_state_40a710|45|1 1,0,0,0,0,0,0,0,0,0,0,0,0,0,0,1,
scooby_state_40a7dd|25|-19 1,0,0,0,0,0,0,0,0,0,0,0,0,0,0,1,
scooby_state_40a707|20|1 1,0,0,0,0,0,0,0,0,0,0,0,0,0,0,1,
scooby_state_40a715|52|1 1,0,0,0,0,0,0,0,0,0,0,0,0,0,0,1,
scooby_state_40a710|45|0 1,0,0,0,0,0,0,0,0,0,0,0,0,0,0,1,
scooby_state_40a8f8|18|17 1,0,0,0,0,0,0,0,0,0,0,0,0,0,0,1,
scooby_state_40a791|18|5 1,0,0,0,0,0,0,0,0,0,0,0,0,0,0,1,
scooby_state_40a710|52|1 1,0,0,0,0,0,0,0,0,0,0,0,0,0,0,1,
scooby_state_40a8f8|18|-2 1,0,0,0,0,0,0,0,0,0,0,0,0,0,0,1,
scooby_state_40a78d|20|-4 1,0,0,0,0,0,0,0,0,0,0,0,0,0,0,1,
scooby_state_40a710|46|1 1,0,0,0,0,0,0,0,0,0,0,0,0,0,0,1,
scooby_state_40a7dd|41|2 1,0,0,0,0,0,0,0,0,0,0,0,0,0,0,1,
scooby_state_40a70c|20|-1 1,0,0,0,0,0,0,0,0,0,0,0,0,0,0,1,
scooby_state_40a715|53|1 1,0,0,0,0,0,0,0,0,0,0,0,0,0,0,1,
scooby_state_40a860|18|-45 1,0,0,0,0,0,0,0,0,0,0,0,0,0,0,1,
scooby_state_40a7dd|18|-45 1,0,0,0,0,0,0,0,0,0,0,0,0,0,0,1,
scooby_state_40a707|58|1 1,0,0,0,0,0,0,0,0,0,0,0,0,0,0,1,
scooby_state_40a860|18|-3 1,0,0,0,0,0,0,0,0,0,0,0,0,0,0,1,
scooby_state_40a7c4|8|-16 1,0,0,0,0,0,0,0,0,0,0,0,0,0,0,1,
scooby_state_40a7dd|18|14 1,0,0,0,0,0,0,0,0,0,0,0,0,0,0,1,
scooby_state_40a707|21|0 1,0,0,0,0,0,0,0,0,0,0,0,0,0,0,1,
scooby_state_40a7f6|0|-21 1,0,0,0,0,0,0,0,0,0,0,0,0,0,0,1,
scooby_state_40a846|63|1 1,0,0,0,0,0,0,0,0,0,0,0,0,0,0,1,
scooby_state_40a715|24|1 1,0,0,0,0,0,0,0,0,0,0,0,0,0,0,1,
scooby_state_40a7dd|0|-5 1,0,0,0,0,0,0,0,0,0,0,0,0,0,0,1,
scooby_state_40a74a|8|-50 1,0,0,0,0,0,0,0,0,0,0,0,0,0,0,1,
scooby_state_40a860|0|-49 1,0,0,0,0,0,0,0,0,0,0,0,0,0,0,1,
scooby_state_40a7c4|8|-2 1,0,0,0,0,0,0,0,0,0,0,0,0,0,0,1,
scooby_state_40a710|60|1 1,0,0,0,0,0,0,0,0,0,0,0,0,0,0,1,
scooby_state_40a7c4|7|-17 1,0,0,0,0,0,0,0,0,0,0,0,0,0,0,1,
scooby_state_40a889|59|1 1,0,0,0,0,0,0,0,0,0,0,0,0,0,0,1,
scooby_state_40a7c4|5|-20 1,0,0,0,0,0,0,0,0,0,0,0,0,0,0,1,
scooby_state_40a77d|10|-15 1,0,0,0,0,0,0,0,0,0,0,0,0,0,0,1,
scooby_state_40a7a6|58|33 1,0,0,0,0,0,0,0,0,0,0,0,0,0,0,1,
scooby_state_40a77d|25|20 1,0,0,0,0,0,0,0,0,0,0,0,0,0,0,1,
scooby_state_40a8f8|25|20 1,0,0,0,0,0,0,0,0,0,0,0,0,0,0,1,
scooby_state_40a707|25|0 1,0,0,0,0,0,0,0,0,0,0,0,0,0,0,1,
scooby_state_40a860|35|-28 1,0,0,0,0,0,0,0,0,0,0,0,0,0,0,1,
scooby_state_40a710|50|1 1,0,0,0,0,0,0,0,0,0,0,0,0,0,0,1,
scooby_state_40a7dd|55|45 1,0,0,0,0,0,0,0,0,0,0,0,0,0,0,1,
scooby_state_40a82e|35|29 1,0,0,0,0,0,0,0,0,0,0,0,0,0,0,1,
scooby_state_40a82e|37|1 1,0,0,0,0,0,0,0,0,0,0,0,0,0,0,1,
scooby_state_40a82e|39|1 1,0,0,0,0,0,0,0,0,0,0,0,0,0,0,1,
scooby_state_40a710|22|0 1,0,0,0,0,0,0,0,0,0,0,0,0,0,0,1,
scooby_state_40a73a|4|-36 1,0,0,0,0,0,0,0,0,0,0,0,0,0,0,1,
scooby_state_40a77d|16|10 1,0,0,0,0,0,0,0,0,0,0,0,0,0,0,1,
scooby_state_40a7dd|17|-41 1,0,0,0,0,0,0,0,0,0,0,0,0,0,0,1,
scooby_state_40a78d|18|13 1,0,0,0,0,0,0,0,0,0,0,0,0,0,0,1,
scooby_state_40a860|21|-37 1,0,0,0,0,0,0,0,0,0,0,0,0,0,0,1,
scooby_state_40a7a6|58|-1 1,0,0,0,0,0,0,0,0,0,0,0,0,0,0,1,
scooby_state_40a7dd|31|10 1,0,0,0,0,0,0,0,0,0,0,0,0,0,0,1,
scooby_state_40a8f8|25|3 1,0,0,0,0,0,0,0,0,0,0,0,0,0,0,1,
scooby_state_40a860|2|-56 1,0,0,0,0,0,0,0,0,0,0,0,0,0,0,1,
scooby_state_40a7a6|48|0 1,0,0,0,0,0,0,0,0,0,0,0,0,0,0,1,
scooby_state_40a889|57|1 1,0,0,0,0,0,0,0,0,0,0,0,0,0,0,1,
scooby_state_40a791|18|0 1,0,0,0,0,0,0,0,0,0,0,0,0,0,0,1,
scooby_state_40a7dd|39|0 1,0,0,0,0,0,0,0,0,0,0,0,0,0,0,1,
scooby_state_40a710|49|1 1,0,0,0,0,0,0,0,0,0,0,0,0,0,0,1,
scooby_state_40a860|17|-4 1,0,0,0,0,0,0,0,0,0,0,0,0,0,0,1,
scooby_state_40a889|58|0 1,0,0,0,0,0,0,0,0,0,0,0,0,0,0,1,
scooby_state_40a707|23|0 1,0,0,0,0,0,0,0,0,0,0,0,0,0,0,1,
scooby_state_40a710|49|0 1,0,0,0,0,0,0,0,0,0,0,0,0,0,0,1,
scooby_state_40a7dd|13|-9 1,0,0,0,0,0,0,0,0,0,0,0,0,0,0,1,
scooby_state_40a860|16|-6 1,0,0,0,0,0,0,0,0,0,0,0,0,0,0,1,
scooby_state_40a710|60|0 1,0,0,0,0,0,0,0,0,0,0,0,0,0,0,1,
scooby_state_40a82e|31|6 1,0,0,0,0,0,0,0,0,0,0,0,0,0,0,1,
scooby_state_40a77d|21|12 1,0,0,0,0,0,0,0,0,0,0,0,0,0,0,1,
scooby_state_40a860|45|-16 1,0,0,0,0,0,0,0,0,0,0,0,0,0,0,1,
scooby_state_40a7dd|0|-61 1,0,0,0,0,0,0,0,0,0,0,0,0,0,0,1,
scooby_state_40a707|24|1 1,0,0,0,0,0,0,0,0,0,0,0,0,0,0,1,
scooby_state_40a715|56|1 1,0,0,0,0,0,0,0,0,0,0,0,0,0,0,1,
scooby_state_40a78d|20|16 1,0,0,0,0,0,0,0,0,0,0,0,0,0,0,1,
scooby_state_40a77d|25|21 1,0,0,0,0,0,0,0,0,0,0,0,0,0,0,1,
scooby_state_40a8f8|20|16 1,0,0,0,0,0,0,0,0,0,0,0,0,0,0,1,
scooby_state_40a860|43|3 1,0,0,0,0,0,0,0,0,0,0,0,0,0,0,1,
scooby_state_40a889|58|1 1,0,0,0,0,0,0,0,0,0,0,0,0,0,0,1,
scooby_state_40a807|58|51 1,0,0,0,0,0,0,0,0,0,0,0,0,0,0,1,
scooby_state_40a707|34|1 1,0,0,0,0,0,0,0,0,0,0,0,0,0,0,1,
scooby_state_40a846|13|4 1,0,0,0,0,0,0,0,0,0,0,0,0,0,0,1,
scooby_state_40a7f6|63|2 1,0,0,0,0,0,0,0,0,0,0,0,0,0,0,1,
scooby_state_40a78d|3|-26 1,0,0,0,0,0,0,0,0,0,0,0,0,0,0,1,
scooby_state_40a841|29|6 1,0,0,0,0,0,0,0,0,0,0,0,0,0,0,1,
scooby_state_40a707|60|0 1,0,0,0,0,0,0,0,0,0,0,0,0,0,0,1,
scooby_state_40a715|6|1 1,0,0,0,0,0,0,0,0,0,0,0,0,0,0,1,
scooby_state_40a7dd|51|-12 1,0,0,0,0,0,0,0,0,0,0,0,0,0,0,1,
scooby_state_40a8cb|48|3 1,0,0,0,0,0,0,0,0,0,0,0,0,0,0,1,
scooby_state_40a889|35|1 1,0,0,0,0,0,0,0,0,0,0,0,0,0,0,1,
scooby_state_40a707|54|1 1,0,0,0,0,0,0,0,0,0,0,0,0,0,0,1,
scooby_state_40a8f8|17|-4 1,0,0,0,0,0,0,0,0,0,0,0,0,0,0,1,
scooby_state_40a7dd|55|42 1,0,0,0,0,0,0,0,0,0,0,0,0,0,0,1,
scooby_state_40a807|58|19 1,0,0,0,0,0,0,0,0,0,0,0,0,0,0,1,
scooby_state_40a860|43|15 1,0,0,0,0,0,0,0,0,0,0,0,0,0,0,1,
scooby_state_40a807|55|19 1,0,0,0,0,0,0,0,0,0,0,0,0,0,0,1,
scooby_state_40a7af|21|11 1,0,0,0,0,0,0,0,0,0,0,0,0,0,0,1,
scooby_state_40a807|0|-56 1,0,0,0,0,0,0,0,0,0,0,0,0,0,0,1,
scooby_state_40a7f6|62|52 1,0,0,0,0,0,0,0,0,0,0,0,0,0,0,1,
scooby_state_40a936|48|3 1,0,0,0,0,0,0,0,0,0,0,0,0,0,0,1,
scooby_state_40a8f8|17|-14 1,0,0,0,0,0,0,0,0,0,0,0,0,0,0,1,
scooby_state_40a707|19|1 1,0,0,0,0,0,0,0,0,0,0,0,0,0,0,1,
scooby_state_40a889|51|1 1,0,0,0,0,0,0,0,0,0,0,0,0,0,0,1,
scooby_state_40a8f8|16|-5 1,0,0,0,0,0,0,0,0,0,0,0,0,0,0,1,
scooby_state_40a715|1|1 1,0,0,0,0,0,0,0,0,0,0,0,0,0,0,1,
scooby_state_40a889|52|1 1,0,0,0,0,0,0,0,0,0,0,0,0,0,0,1,
scooby_state_40a77d|16|-32 1,0,0,0,0,0,0,0,0,0,0,0,0,0,0,1,
scooby_state_40a889|13|1 1,0,0,0,0,0,0,0,0,0,0,0,0,0,0,1,
scooby_state_40a707|12|1 1,0,0,0,0,0,0,0,0,0,0,0,0,0,0,1,
scooby_state_40a7dd|10|-14 1,0,0,0,0,0,0,0,0,0,0,0,0,0,0,1,
scooby_state_40aa01|40|1 1,0,0,0,0,0,0,0,0,0,0,0,0,0,0,1,
scooby_state_40a860|55|29 1,0,0,0,0,0,0,0,0,0,0,0,0,0,0,1,
scooby_state_40a889|4|2 1,0,0,0,0,0,0,0,0,0,0,0,0,0,0,1,
scooby_state_40a7af|9|5 1,0,0,0,0,0,0,0,0,0,0,0,0,0,0,1,
scooby_state_40a7af|27|3 1,0,0,0,0,0,0,0,0,0,0,0,0,0,0,1,
scooby_state_40a860|55|0 1,0,0,0,0,0,0,0,0,0,0,0,0,0,0,1,
scooby_state_40a82e|36|19 1,0,0,0,0,0,0,0,0,0,0,0,0,0,0,1,
scooby_state_40a7c4|9|4 1,0,0,0,0,0,0,0,0,0,0,0,0,0,0,1,
scooby_state_40a846|26|5 1,0,0,0,0,0,0,0,0,0,0,0,0,0,0,1,
scooby_state_40a78d|4|-15 1,0,0,0,0,0,0,0,0,0,0,0,0,0,0,1,
scooby_state_40a77d|17|-37 1,0,0,0,0,0,0,0,0,0,0,0,0,0,0,1,
scooby_state_40a8fd|8|0 1,0,0,0,0,0,0,0,0,0,0,0,0,0,0,1,
scooby_state_40a860|16|-37 1,0,0,0,0,0,0,0,0,0,0,0,0,0,0,1,
scooby_state_40a860|10|0 1,0,0,0,0,0,0,0,0,0,0,0,0,0,0,1,
scooby_state_40a807|56|2 1,0,0,0,0,0,0,0,0,0,0,0,0,0,0,1,
scooby_state_40a8a0|8|3 1,0,0,0,0,0,0,0,0,0,0,0,0,0,0,1,
scooby_state_40a78d|17|-37 1,0,0,0,0,0,0,0,0,0,0,0,0,0,0,1,
scooby_state_40a707|1|1 1,0,0,0,0,0,0,0,0,0,0,0,0,0,0,1,
scooby_state_40a7dd|8|4 1,0,0,0,0,0,0,0,0,0,0,0,0,0,0,1,
scooby_state_40a7dd|36|0 1,0,0,0,0,0,0,0,0,0,0,0,0,0,0,1,
scooby_state_40a715|33|1 1,0,0,0,0,0,0,0,0,0,0,0,0,0,0,1,
scooby_state_40a7c4|5|-21 1,0,0,0,0,0,0,0,0,0,0,0,0,0,0,1,
scooby_state_40a77d|14|-37 1,0,0,0,0,0,0,0,0,0,0,0,0,0,0,1,
scooby_state_40a707|37|1 1,0,0,0,0,0,0,0,0,0,0,0,0,0,0,1,
scooby_state_40a78d|10|-9 1,0,0,0,0,0,0,0,0,0,0,0,0,0,0,1,
scooby_state_40a7af|7|2 1,0,0,0,0,0,0,0,0,0,0,0,0,0,0,1,
scooby_state_40a77d|26|-37 1,0,0,0,0,0,0,0,0,0,0,0,0,0,0,1,
scooby_state_40a7c4|0|-9 1,0,0,0,0,0,0,0,0,0,0,0,0,0,0,1,
scooby_state_40a7dd|17|-19 1,0,0,0,0,0,0,0,0,0,0,0,0,0,0,1,
scooby_state_40a77d|20|-25 1,0,0,0,0,0,0,0,0,0,0,0,0,0,0,1,
scooby_state_40a846|61|0 1,0,0,0,0,0,0,0,0,0,0,0,0,0,0,1,
scooby_state_40a846|17|0 1,0,0,0,0,0,0,0,0,0,0,0,0,0,0,1,
scooby_state_40a7dd|51|51 1,0,0,0,0,0,0,0,0,0,0,0,0,0,0,1,
scooby_state_40a889|55|1 1,0,0,0,0,0,0,0,0,0,0,0,0,0,0,1,
scooby_state_40a860|10|-36 1,0,0,0,0,0,0,0,0,0,0,0,0,0,0,1,
scooby_state_40a936|2|1 1,0,0,0,0,0,0,0,0,0,0,0,0,0,0,1,
scooby_state_40a7a6|45|13 1,0,0,0,0,0,0,0,0,0,0,0,0,0,0,1,
scooby_state_40a707|22|1 1,0,0,0,0,0,0,0,0,0,0,0,0,0,0,1,
scooby_state_40a833|14|1 1,0,0,0,0,0,0,0,0,0,0,0,0,0,0,1,
scooby_state_40a82e|32|23 1,0,0,0,0,0,0,0,0,0,0,0,0,0,0,1,
scooby_state_40a889|40|1 1,0,0,0,0,0,0,0,0,0,0,0,0,0,0,1,
scooby_state_40a7c4|6|-17 1,0,0,0,0,0,0,0,0,0,0,0,0,0,0,1,
scooby_state_40a715|44|1 1,0,0,0,0,0,0,0,0,0,0,0,0,0,0,1,
scooby_state_40a7dd|2|-11 1,0,0,0,0,0,0,0,0,0,0,0,0,0,0,1,
scooby_state_40a710|6|1 1,0,0,0,0,0,0,0,0,0,0,0,0,0,0,1,
scooby_state_40a72b|18|1 1,0,0,0,0,0,0,0,0,0,0,0,0,0,0,1,
scooby_state_40a889|45|1 1,0,0,0,0,0,0,0,0,0,0,0,0,0,0,1,
scooby_state_40a8f8|18|-9 1,0,0,0,0,0,0,0,0,0,0,0,0,0,0,1,
scooby_state_40a70c|58|-1 1,0,0,0,0,0,0,0,0,0,0,0,0,0,0,1,
scooby_state_40a860|2|-14 1,0,0,0,0,0,0,0,0,0,0,0,0,0,0,1,
scooby_state_40a82e|45|39 1,0,0,0,0,0,0,0,0,0,0,0,0,0,0,1,
scooby_state_40a7af|29|1 1,0,0,0,0,0,0,0,0,0,0,0,0,0,0,1,
scooby_state_40a8c1|35|1 1,0,0,0,0,0,0,0,0,0,0,0,0,0,0,1,
scooby_state_40a889|41|1 1,0,0,0,0,0,0,0,0,0,0,0,0,0,0,1,
scooby_state_40a807|55|1 1,0,0,0,0,0,0,0,0,0,0,0,0,0,0,1,
scooby_state_40a7f6|62|38 1,0,0,0,0,0,0,0,0,0,0,0,0,0,0,1,
scooby_state_40a707|2|0 1,0,0,0,0,0,0,0,0,0,0,0,0,0,0,1,
scooby_state_40a710|19|0 1,0,0,0,0,0,0,0,0,0,0,0,0,0,0,1,
scooby_state_40a710|9|1 1,0,0,0,0,0,0,0,0,0,0,0,0,0,0,1,
scooby_state_40a7f6|13|8 1,0,0,0,0,0,0,0,0,0,0,0,0,0,0,1,
scooby_state_40a889|3|1 1,0,0,0,0,0,0,0,0,0,0,0,0,0,0,1,
scooby_state_40a73a|6|-57 1,0,0,0,0,0,0,0,0,0,0,0,0,0,0,1,
scooby_state_40a889|18|1 1,0,0,0,0,0,0,0,0,0,0,0,0,0,0,1,
scooby_state_40a715|13|1 1,0,0,0,0,0,0,0,0,0,0,0,0,0,0,1,
scooby_state_40a846|14|1 1,0,0,0,0,0,0,0,0,0,0,0,0,0,0,1,
scooby_state_40a710|27|1 1,0,0,0,0,0,0,0,0,0,0,0,0,0,0,1,
scooby_state_40a707|26|1 1,0,0,0,0,0,0,0,0,0,0,0,0,0,0,1,
scooby_state_40a77d|25|16 1,0,0,0,0,0,0,0,0,0,0,0,0,0,0,1,
scooby_state_40a7c4|5|-17 1,0,0,0,0,0,0,0,0,0,0,0,0,0,0,1,
scooby_state_40a73a|4|-56 1,0,0,0,0,0,0,0,0,0,0,0,0,0,0,1,
scooby_state_40a715|39|1 1,0,0,0,0,0,0,0,0,0,0,0,0,0,0,1,
scooby_state_40a77d|18|-8 1,0,0,0,0,0,0,0,0,0,0,0,0,0,0,1,
scooby_state_40a82e|46|19 1,0,0,0,0,0,0,0,0,0,0,0,0,0,0,1,
scooby_state_40a860|54|41 1,0,0,0,0,0,0,0,0,0,0,0,0,0,0,1,
scooby_state_40a846|6|4 1,0,0,0,0,0,0,0,0,0,0,0,0,0,0,1,
scooby_state_40a715|27|1 1,0,0,0,0,0,0,0,0,0,0,0,0,0,0,1,
scooby_state_40a77d|13|-15 1,0,0,0,0,0,0,0,0,0,0,0,0,0,0,1,

scooby_action_0_deg_dist 0,36,0,0,0,0,0,0,0,0,0,0,0,0,0,0,
scooby_action_-6_deg_dist 0,6,0,0,0,0,0,0,0,0,0,0,0,0,0,0,
scooby_action_3_deg_dist 0,11,0,0,0,0,0,0,0,0,0,0,0,0,0,0,
scooby_action_32_deg_dist 0,7,0,0,0,0,0,0,0,0,0,0,0,0,0,0,
scooby_action_4_deg_dist 0,7,0,0,0,0,0,0,0,0,0,0,0,0,0,0,
scooby_action_1_deg_dist 0,657,234,0,536,0,21576,0,0,0,0,0,0,0,0,0,
scooby_action_30_deg_dist 0,10,0,0,0,0,0,0,0,0,0,0,0,0,0,0,
scooby_action_5_deg_dist 0,7,0,0,0,0,0,0,0,0,0,0,0,0,0,0,
scooby_action_10_deg_dist 0,13,0,0,0,0,0,0,0,0,0,0,0,0,0,0,
scooby_action_-1_deg_dist 0,3,0,0,0,0,0,0,0,0,0,0,0,0,0,0,
scooby_action_23_deg_dist 0,7,0,0,0,0,0,0,0,0,0,0,0,0,0,0,
scooby_action_11_deg_dist 0,10,0,0,0,0,0,0,0,0,0,0,0,0,0,0,
scooby_action_12_deg_dist 0,6,0,0,0,0,0,0,0,0,0,0,0,0,0,0,
scooby_action_22_deg_dist 0,9,0,0,0,0,0,0,0,0,0,0,0,0,0,0,
scooby_action_-3_deg_dist 0,3,0,0,0,0,0,0,0,0,0,0,0,0,0,0,

scooby_track_called 23138
scooby_track_same_address 6189
scooby_track_evict 16693

scooby_reward_demand_called 23138
scooby_reward_demand_pt_not_found 3214
scooby_reward_demand_pt_found 19924
scooby_reward_demand_pt_found_total 19924
scooby_reward_demand_has_reward 5026
scooby_reward_train_called 1648
scooby_reward_assign_reward_called 16902
scooby_reward_no_pref 32
scooby_reward_incorrect 1616
scooby_reward_correct_untimely 14723
scooby_reward_correct_timely 175
scooby_reward_out_of_bounds 356
scooby_reward_tracker_hit 0

scooby_reward_none_low_bw 32
scooby_reward_none_high_bw 0
scooby_reward_incorrect_low_bw 1616
scooby_reward_incorrect_high_bw 0
scooby_reward_correct_untimely_low_bw 14723
scooby_reward_correct_untimely_high_bw 0
scooby_reward_correct_timely_low_bw 175
scooby_reward_correct_timely_high_bw 0
scooby_reward_out_of_bounds_low_bw 356
scooby_reward_out_of_bounds_high_bw 0
scooby_reward_tracker_hit_low_bw 0
scooby_reward_tracker_hit_high_bw 0

scooby_reward_1 0,1570,14719,175,352,0,
scooby_reward_3 0,6,1,0,0,0,
scooby_reward_4 0,3,0,0,0,0,
scooby_reward_5 0,4,1,0,0,0,
scooby_reward_10 0,5,0,0,1,0,
scooby_reward_11 0,3,1,0,1,0,
scooby_reward_12 0,3,0,0,0,0,
scooby_reward_22 0,5,0,0,0,0,
scooby_reward_23 0,5,0,0,0,0,
scooby_reward_30 0,2,0,0,2,0,
scooby_reward_32 0,4,1,0,0,0,
scooby_reward_-1 0,2,0,0,0,0,
scooby_reward_-3 0,1,0,0,0,0,
scooby_reward_-6 0,3,0,0,0,0,
scooby_reward_0 32,0,0,0,0,0,

scooby_train_called 16692
scooby_train_compute_reward 1648

scooby_register_fill_called 2508
scooby_register_fill_set 268
scooby_register_fill_set_total 268

scooby_register_prefetch_hit_called 88096
scooby_register_prefetch_hit_set 21215
scooby_register_prefetch_hit_set_total 21215

scooby_pref_issue_scooby 90831

learning_engine_featurewise.action.called 23138
learning_engine_featurewise.action.explore 41
learning_engine_featurewise.action.exploit 23097
learning_engine_featurewise.action.fallback 0
learning_engine_featurewise.action.dyn_fallback_saved_bw 0
learning_engine_featurewise.action.dyn_fallback_saved_bw_acc 6
learning_engine_featurewise.action.index_1_explored 3
learning_engine_featurewise.action.index_1_exploited 23000
learning_engine_featurewise.action.index_3_explored 4
learning_engine_featurewise.action.index_3_exploited 7
learning_engine_featurewise.action.index_4_explored 3
learning_engine_featurewise.action.index_4_exploited 4
learning_engine_featurewise.action.index_5_explored 3
learning_engine_featurewise.action.index_5_exploited 4
learning_engine_featurewise.action.index_10_explored 5
learning_engine_featurewise.action.index_10_exploited 8
learning_engine_featurewise.action.index_11_explored 5
learning_engine_featurewise.action.index_11_exploited 5
learning_engine_featurewise.action.index_12_explored 1
learning_engine_featurewise.action.index_12_exploited 5
learning_engine_featurewise.action.index_22_explored 2
learning_engine_featurewise.action.index_22_exploited 7
learning_engine_featurewise.action.index_23_explored 2
learning_engine_featurewise.action.index_23_exploited 5
learning_engine_featurewise.action.index_30_explored 3
learning_engine_featurewise.action.index_30_exploited 7
learning_engine_featurewise.action.index_32_explored 4
learning_engine_featurewise.action.index_32_exploited 3
learning_engine_featurewise.action.index_-1_explored 1
learning_engine_featurewise.action.index_-1_exploited 2
learning_engine_featurewise.action.index_-3_explored 2
learning_engine_featurewise.action.index_-3_exploited 1
learning_engine_featurewise.action.index_-6_explored 2
learning_engine_featurewise.action.index_-6_exploited 4
learning_engine_featurewise.action.index_0_explored 1
learning_engine_featurewise.action.index_0_exploited 35
learning_engine_featurewise.learn.called 16692
learning_engine_featurewise.learn.su_skip_PC 0
learning_engine_featurewise.learn.su_skip_PC_Delta 0

learning_engine_featurewise.q_value_histogram.bucket_0 0
learning_engine_featurewise.q_value_histogram.bucket_1 0
learning_engine_featurewise.q_value_histogram.bucket_2 0
learning_engine_featurewise.q_value_histogram.bucket_3 0
learning_engine_featurewise.q_value_histogram.bucket_4 1639
learning_engine_featurewise.q_value_histogram.bucket_5 2086
learning_engine_featurewise.q_value_histogram.bucket_6 19372
learning_engine_featurewise.q_value_histogram.bucket_7 0

learning_engine_featurewise.consensus.total 23097
learning_engine_featurewise.consensus.feature_align_PC 23015
learning_engine_featurewise.consensus.feature_align_PC_ratio 1.00
learning_engine_featurewise.consensus.feature_align_PC_Delta 23040
learning_engine_featurewise.consensus.feature_align_PC_Delta_ratio 1.00
learning_engine_featurewise.consensus.feature_align_all 22958
learning_engine_featurewise.consensus.feature_align_all_ratio 0.99

learning_engine_featurewise.feature_PC_min_weight 1000000.00000000
learning_engine_featurewise.feature_PC_max_weight 0.00000000
learning_engine_featurewise.feature_PC_Delta_min_weight 1000000.00000000
learning_engine_featurewise.feature_PC_Delta_max_weight 0.00000000
unique_pcs 50
unique_pages 184
unique_trigger_pcs 22
total_bitmaps_seen 0
unique_bitmaps_seen 0

scooby_bw_epochs 37303
scooby_bw_level_0 37292
scooby_bw_level_1 11
scooby_bw_level_2 0
scooby_bw_level_3 0

scooby_ipc_epochs 0
scooby_ipc_level_0 0
scooby_ipc_level_1 0
scooby_ipc_level_2 0
scooby_ipc_level_3 0

scooby_cache_acc_epochs 9286
scooby_cache_acc_level_0 8107
scooby_cache_acc_level_1 221
scooby_cache_acc_level_2 190
scooby_cache_acc_level_3 56
scooby_cache_acc_level_4 64
scooby_cache_acc_level_5 170
scooby_cache_acc_level_6 32
scooby_cache_acc_level_7 61
scooby_cache_acc_level_8 67
scooby_cache_acc_level_9 318

Channel_0_RQ_row_buffer_hit 23376
Channel_0_RQ_row_buffer_miss 3611
Channel_0_WQ_row_buffer_hit 0
Channel_0_WQ_row_buffer_miss 219
Channel_0_WQ_full 0
Channel_0_dbus_congested 103

avg_congested_cycle 9

DRAM_bw_pochs 37303
DRAM_bw_level_0 37292
DRAM_bw_level_1 11
DRAM_bw_level_2 0
DRAM_bw_level_3 0
