Original cmd-> /cluster/home/vlnitu/CA-Lab4-24-vlnitu/Pythia/bin/perceptron-no-multi-no-ship-1core --warmup_instructions=1000000 --simulation_instructions=10000000 --l2c_prefetcher_types=scooby --config=/cluster/home/vlnitu/CA-Lab4-24-vlnitu/Pythia/config/pythia.ini --mail-type=BEGIN,END  -traces /cluster/home/vlnitu/CA-Lab4-24-vlnitu/Pythia/traces/459.GemsFDTD-1211B.champsimtrace.xz
*************************************************
   ChampSim Multicore Out-of-Order Simulator
   Last compiled: Nov 19 2024 20:10:11
*************************************************
parsing config file: /cluster/home/vlnitu/CA-Lab4-24-vlnitu/Pythia/config/pythia.ini
unable to parse section: , name: mail-type, value: BEGIN,END

trace_0 /cluster/home/vlnitu/CA-Lab4-24-vlnitu/Pythia/traces/459.GemsFDTD-1211B.champsimtrace.xz
adding L2C_PREFETCHER: Scooby
Initialize SHIP state
warmup_instructions 1000000
simulation_instructions 10000000
champsim_seed 263
measure_ipc 0
measure_ipc_epoch 1000
measure_dram_bw 1
measure_dram_bw_epoch 256
measure_cache_acc 1
measure_cache_acc_epoch 1024
l1d_perfect 0
l2c_perfect 0
llc_perfect 0
l1d_semi_perfect 0
l2c_semi_perfect 0
llc_semi_perfect 0
semi_perfect_cache_page_buffer_size 64

num_cpus 1
cpu_freq 4000
dram_io_freq 2400
page_size 4096
block_size 64
max_read_per_cycle 8
max_fill_per_cycle 1
dram_channels 1
log2_dram_channels 0
dram_ranks 1
dram_banks 8
dram_rows 65536
dram_columns 128
dram_row_size 8
dram_size 4096
dram_pages 1048576

fetch_width 6
decode_width 6
exec_width 4
lq_width 2
sq_width 2
retire_width 4
scheduler_size 128
branch_mispredict_penalty 20
rob_size 256
lq_size 72
sq_size 56
num_instr_destinations_sparc 4
num_instr_destinations 2
num_instr_sources 4

itlb_set 16
itlb_way 8
itlb_rq_size 16
itlb_wq_size 16
itlb_pq_size 0
itlb_mshr_size 8
itlb_latency 1

dtlb_set 16
dtlb_way 4
dtlb_rq_size 16
dtlb_wq_size 16
dtlb_pq_size 0
dtlb_mshr_size 8
dtlb_latency 1

stlb_set 128
stlb_way 12
stlb_rq_size 32
stlb_wq_size 32
stlb_pq_size 0
stlb_mshr_size 16
stlb_latency 8

l1i_size 32
l1i_set 64
l1i_way 8
l1i_rq_size 64
l1i_wq_size 64
l1i_pq_size 8
l1i_mshr_size 8
l1i_latency 1

l1d_size 32
l1d_set 64
l1d_way 8
l1d_rq_size 64
l1d_wq_size 64
l1d_pq_size 8
l1d_mshr_size 16
l1d_latency 4

l2c_size 256
l2c_set 512
l2c_way 8
l2c_rq_size 32
l2c_wq_size 32
l2c_pq_size 32
l2c_mshr_size 32
l2c_latency 10

llc_size 2048
llc_set 2048
llc_way 16
llc_rq_size 32
llc_wq_size 32
llc_pq_size 32
llc_mshr_size 64
llc_latency 20

dram_channel_width 8
dram_wq_size 64
dram_rq_size 64
tRP 15
tRCD 15
tCAS 12.5
dram_dbus_turn_around_time 30
dram_write_high_wm 56
dram_write_low_wm 48
min_dram_writes_per_switch 16
dram_mtps 2400
dram_dbus_return_time 13

scooby_alpha 0.0065088
scooby_gamma 0.556301
scooby_epsilon 0.00182284
scooby_state_num_bits 10
scooby_max_states 1024
scooby_seed 200
scooby_policy EGreedy
scooby_learning_type SARSA
scooby_actions 1,3,4,5,10,11,12,22,23,30,32,-1,-3,-6,0,
scooby_max_actions 15
scooby_pt_size 256
scooby_st_size 64
scooby_max_pcs 5
scooby_max_offsets 5
scooby_max_deltas 5
scooby_reward_none -4
scooby_reward_incorrect -8
scooby_reward_correct_untimely 12
scooby_reward_correct_timely 20
scooby_brain_zero_init 0
scooby_enable_reward_all 0
scooby_enable_track_multiple 0
scooby_enable_reward_out_of_bounds 1
scooby_reward_out_of_bounds -12
scooby_state_type 1
scooby_state_hash_type 11
scooby_access_debug 0
scooby_print_access_debug 0
scooby_print_access_debug_pc deadbeef
scooby_print_access_debug_pc_count 0
scooby_print_trace 0
scooby_enable_state_action_stats 1
scooby_enable_reward_tracker_hit 0
scooby_reward_tracker_hit -2
scooby_enable_featurewise_engine 1
scooby_pref_degree 1
scooby_enable_dyn_degree 1
scooby_max_to_avg_q_thresholds 0.5,1,2,
scooby_dyn_degrees 1,2,4,4,
scooby_multi_deg_select_type 2
scooby_last_pref_offset_conf_thresholds 1,3,8,
scooby_dyn_degrees_type2 1,2,4,6,
scooby_action_tracker_size 2
scooby_high_bw_thresh 4
scooby_enable_hbw_reward 1
scooby_reward_hbw_correct_timely 20
scooby_reward_hbw_correct_untimely 12
scooby_reward_hbw_incorrect -14
scooby_reward_hbw_none -2
scooby_reward_hbw_out_of_bounds -12
scooby_reward_hbw_tracker_hit -2
scooby_last_pref_offset_conf_thresholds_hbw 1,3,8,
scooby_dyn_degrees_type2_hbw 1,2,4,6,

le_enable_trace 0
le_trace_interval 0
le_trace_file_name 
le_trace_state 0
le_enable_score_plot 0
le_plot_file_name 
le_plot_actions 
le_enable_action_trace 0
le_action_trace_interval 0
le_action_trace_name 
le_enable_action_plot 0

le_featurewise_active_features PC, PC_Delta
le_featurewise_num_tilings 3,3,
le_featurewise_num_tiles 128,128,
le_featurewise_hash_types 2,2,
le_featurewise_enable_tiling_offset 1,1,
le_featurewise_max_q_thresh 0.5
le_featurewise_enable_action_fallback 1
le_featurewise_feature_weights 1,1,
le_featurewise_enable_dynamic_weight 0
le_featurewise_weight_gradient 0.001
le_featurewise_disable_adjust_weight_all_features_align 1
le_featurewise_selective_update 0
le_featurewise_pooling_type 2
le_featurewise_enable_dyn_action_fallback 1
le_featurewise_bw_acc_check_level 1
le_featurewise_acc_thresh 2
le_featurewise_enable_trace 0
le_featurewise_trace_feature_type 0
le_featurewise_trace_feature 
le_featurewise_trace_interval 0
le_featurewise_trace_record_count 0
le_featurewise_trace_file_name 
le_featurewise_enable_score_plot 0
le_featurewise_plot_actions 
le_featurewise_plot_file_name 


Heartbeat CPU  0 instructions:    1000003 cycles:     792467 heartbeat IPC: 1.26189 cumulative IPC: 1.26189 (Simulation time: 0 hr 0 min 2 sec) 

Warmup complete CPU  0 instructions:    1000003 cycles:     792467 (Simulation time: 0 hr 0 min 2 sec) 

Heartbeat CPU  0 instructions:    2000002 cycles:    2375616 heartbeat IPC: 0.63165 cumulative IPC: 0.63165 (Simulation time: 0 hr 0 min 5 sec) 
Heartbeat CPU  0 instructions:    3000003 cycles:    3970168 heartbeat IPC: 0.62714 cumulative IPC: 0.62939 (Simulation time: 0 hr 0 min 7 sec) 
Heartbeat CPU  0 instructions:    4000000 cycles:    5587433 heartbeat IPC: 0.61833 cumulative IPC: 0.62566 (Simulation time: 0 hr 0 min 9 sec) 
Heartbeat CPU  0 instructions:    5000000 cycles:    7199768 heartbeat IPC: 0.62022 cumulative IPC: 0.62429 (Simulation time: 0 hr 0 min 12 sec) 
Heartbeat CPU  0 instructions:    6000002 cycles:    8830946 heartbeat IPC: 0.61306 cumulative IPC: 0.62201 (Simulation time: 0 hr 0 min 14 sec) 
Heartbeat CPU  0 instructions:    7000002 cycles:   10463016 heartbeat IPC: 0.61272 cumulative IPC: 0.62044 (Simulation time: 0 hr 0 min 16 sec) 
Heartbeat CPU  0 instructions:    8000000 cycles:   12092205 heartbeat IPC: 0.61380 cumulative IPC: 0.61948 (Simulation time: 0 hr 0 min 19 sec) 
Heartbeat CPU  0 instructions:    9000000 cycles:   13730879 heartbeat IPC: 0.61025 cumulative IPC: 0.61831 (Simulation time: 0 hr 0 min 21 sec) 
Heartbeat CPU  0 instructions:   10000001 cycles:   15353346 heartbeat IPC: 0.61635 cumulative IPC: 0.61809 (Simulation time: 0 hr 0 min 23 sec) 
Heartbeat CPU  0 instructions:   11000002 cycles:   16982280 heartbeat IPC: 0.61390 cumulative IPC: 0.61767 (Simulation time: 0 hr 0 min 26 sec) 
Finished CPU 0 instructions: 10000003 cycles: 16189814 cumulative IPC: 0.61767 (Simulation time: 0 hr 0 min 26 sec) 

ChampSim completed all CPUs

[ROI Statistics]
Core_0_instructions 10000003
Core_0_cycles 16189814
Core_0_IPC 0.61767

Core_0_branch_prediction_accuracy 99.96334
Core_0_branch_MPKI 0.00210
Core_0_average_ROB_occupancy_at_mispredict 253.85714

Core_0_L1D_total_access 5772521
Core_0_L1D_total_hit 5679544
Core_0_L1D_total_miss 92977
Core_0_L1D_loads 5005382
Core_0_L1D_load_hit 4912428
Core_0_L1D_load_miss 92954
Core_0_L1D_RFOs 767139
Core_0_L1D_RFO_hit 767116
Core_0_L1D_RFO_miss 23
Core_0_L1D_prefetches 0
Core_0_L1D_prefetch_hit 0
Core_0_L1D_prefetch_miss 0
Core_0_L1D_writebacks 0
Core_0_L1D_writeback_hit 0
Core_0_L1D_writeback_miss 0
Core_0_L1D_prefetch_requested 0
Core_0_L1D_prefetch_dropped 0
Core_0_L1D_prefetch_issued 0
Core_0_L1D_prefetch_filled 0
Core_0_L1D_prefetch_useful 0
Core_0_L1D_prefetch_useless 0
Core_0_L1D_prefetch_late 0
Core_0_L1D_average_miss_latency 73.20012

Core_0_L1D_rq_access 6159964
Core_0_L1D_rq_forward 0
Core_0_L1D_rq_merged 1154514
Core_0_L1D_rq_to_cache 5005450
Core_0_L1D_rq_full 0

Core_0_L1D_wq_access 767138
Core_0_L1D_wq_forward 0
Core_0_L1D_wq_merged 0
Core_0_L1D_wq_to_cache 767138
Core_0_L1D_wq_full 0

Core_0_L1D_pq_access 0
Core_0_L1D_pq_forward 0
Core_0_L1D_pq_merged 0
Core_0_L1D_pq_to_cache 0
Core_0_L1D_pq_full 0

Core_0_L1D_acc_epochs 15539
Core_0_L1D_acc_level_0 15539
Core_0_L1D_acc_level_1 0
Core_0_L1D_acc_level_2 0
Core_0_L1D_acc_level_3 0
Core_0_L1D_acc_level_4 0
Core_0_L1D_acc_level_5 0
Core_0_L1D_acc_level_6 0
Core_0_L1D_acc_level_7 0
Core_0_L1D_acc_level_8 0
Core_0_L1D_acc_level_9 0

Core_0_L1I_total_access 2713270
Core_0_L1I_total_hit 2713270
Core_0_L1I_total_miss 0
Core_0_L1I_loads 2713270
Core_0_L1I_load_hit 2713270
Core_0_L1I_load_miss 0
Core_0_L1I_RFOs 0
Core_0_L1I_RFO_hit 0
Core_0_L1I_RFO_miss 0
Core_0_L1I_prefetches 0
Core_0_L1I_prefetch_hit 0
Core_0_L1I_prefetch_miss 0
Core_0_L1I_writebacks 0
Core_0_L1I_writeback_hit 0
Core_0_L1I_writeback_miss 0
Core_0_L1I_prefetch_requested 0
Core_0_L1I_prefetch_dropped 0
Core_0_L1I_prefetch_issued 0
Core_0_L1I_prefetch_filled 0
Core_0_L1I_prefetch_useful 0
Core_0_L1I_prefetch_useless 0
Core_0_L1I_prefetch_late 0
Core_0_L1I_average_miss_latency -nan

Core_0_L1I_rq_access 9999997
Core_0_L1I_rq_forward 0
Core_0_L1I_rq_merged 7286727
Core_0_L1I_rq_to_cache 2713270
Core_0_L1I_rq_full 0

Core_0_L1I_wq_access 0
Core_0_L1I_wq_forward 0
Core_0_L1I_wq_merged 0
Core_0_L1I_wq_to_cache 0
Core_0_L1I_wq_full 0

Core_0_L1I_pq_access 0
Core_0_L1I_pq_forward 0
Core_0_L1I_pq_merged 0
Core_0_L1I_pq_to_cache 0
Core_0_L1I_pq_full 0

Core_0_L1I_acc_epochs 15539
Core_0_L1I_acc_level_0 15539
Core_0_L1I_acc_level_1 0
Core_0_L1I_acc_level_2 0
Core_0_L1I_acc_level_3 0
Core_0_L1I_acc_level_4 0
Core_0_L1I_acc_level_5 0
Core_0_L1I_acc_level_6 0
Core_0_L1I_acc_level_7 0
Core_0_L1I_acc_level_8 0
Core_0_L1I_acc_level_9 0

Core_0_L2C_total_access 345032
Core_0_L2C_total_hit 204098
Core_0_L2C_total_miss 140934
Core_0_L2C_loads 92930
Core_0_L2C_load_hit 61213
Core_0_L2C_load_miss 31717
Core_0_L2C_RFOs 22
Core_0_L2C_RFO_hit 22
Core_0_L2C_RFO_miss 0
Core_0_L2C_prefetches 207647
Core_0_L2C_prefetch_hit 98431
Core_0_L2C_prefetch_miss 109216
Core_0_L2C_writebacks 44433
Core_0_L2C_writeback_hit 44432
Core_0_L2C_writeback_miss 1
Core_0_L2C_prefetch_requested 228482
Core_0_L2C_prefetch_dropped 15
Core_0_L2C_prefetch_issued 228467
Core_0_L2C_prefetch_filled 120253
Core_0_L2C_prefetch_useful 67036
Core_0_L2C_prefetch_useless 51861
Core_0_L2C_prefetch_late 6
Core_0_L2C_average_miss_latency 166.35082

Core_0_L2C_rq_access 92977
Core_0_L2C_rq_forward 0
Core_0_L2C_rq_merged 0
Core_0_L2C_rq_to_cache 92952
Core_0_L2C_rq_full 0

Core_0_L2C_wq_access 44433
Core_0_L2C_wq_forward 25
Core_0_L2C_wq_merged 0
Core_0_L2C_wq_to_cache 44433
Core_0_L2C_wq_full 0

Core_0_L2C_pq_access 228467
Core_0_L2C_pq_forward 0
Core_0_L2C_pq_merged 101
Core_0_L2C_pq_to_cache 228366
Core_0_L2C_pq_full 0

Core_0_L2C_acc_epochs 15539
Core_0_L2C_acc_level_0 3
Core_0_L2C_acc_level_1 116
Core_0_L2C_acc_level_2 691
Core_0_L2C_acc_level_3 1211
Core_0_L2C_acc_level_4 1948
Core_0_L2C_acc_level_5 2962
Core_0_L2C_acc_level_6 2483
Core_0_L2C_acc_level_7 2032
Core_0_L2C_acc_level_8 1366
Core_0_L2C_acc_level_9 2727

Core_0_LLC_total_access 185314
Core_0_LLC_total_hit 41785
Core_0_LLC_total_miss 143529
Core_0_LLC_loads 31711
Core_0_LLC_load_hit 7891
Core_0_LLC_load_miss 23820
Core_0_LLC_RFOs 0
Core_0_LLC_RFO_hit 0
Core_0_LLC_RFO_miss 0
Core_0_LLC_prefetches 109222
Core_0_LLC_prefetch_hit 23874
Core_0_LLC_prefetch_miss 85348
Core_0_LLC_writebacks 44381
Core_0_LLC_writeback_hit 10020
Core_0_LLC_writeback_miss 34361
Core_0_LLC_prefetch_requested 0
Core_0_LLC_prefetch_dropped 0
Core_0_LLC_prefetch_issued 0
Core_0_LLC_prefetch_filled 95421
Core_0_LLC_prefetch_useful 35
Core_0_LLC_prefetch_useless 77998
Core_0_LLC_prefetch_late 0
Core_0_LLC_average_miss_latency 130.00096

Core_0_LLC_rq_access 31711
Core_0_LLC_rq_forward 0
Core_0_LLC_rq_merged 0
Core_0_LLC_rq_to_cache 31711
Core_0_LLC_rq_full 0

Core_0_LLC_wq_access 44382
Core_0_LLC_wq_forward 0
Core_0_LLC_wq_merged 0
Core_0_LLC_wq_to_cache 44382
Core_0_LLC_wq_full 0

Core_0_LLC_pq_access 120261
Core_0_LLC_pq_forward 0
Core_0_LLC_pq_merged 0
Core_0_LLC_pq_to_cache 120261
Core_0_LLC_pq_full 0

Core_0_LLC_acc_epochs 16585
Core_0_LLC_acc_level_0 16560
Core_0_LLC_acc_level_1 17
Core_0_LLC_acc_level_2 5
Core_0_LLC_acc_level_3 0
Core_0_LLC_acc_level_4 0
Core_0_LLC_acc_level_5 3
Core_0_LLC_acc_level_6 0
Core_0_LLC_acc_level_7 0
Core_0_LLC_acc_level_8 0
Core_0_LLC_acc_level_9 0

Core_0_major_page_fault 0
Core_0_minor_page_fault 12112

scooby_st_lookup 102322
scooby_st_hit 86415
scooby_st_evict 15843
scooby_st_insert 15907
scooby_st_streaming 0

scooby_predict_called 102322
scooby_predict_out_of_bounds 1716
scooby_predict_action_1 100427
scooby_predict_issue_action_1 100257
scooby_predict_hit_action_1 170
scooby_predict_out_of_bounds_action_1 1651
scooby_predict_action_3 27
scooby_predict_issue_action_3 27
scooby_predict_hit_action_3 0
scooby_predict_out_of_bounds_action_3 6
scooby_predict_action_4 14
scooby_predict_issue_action_4 14
scooby_predict_hit_action_4 0
scooby_predict_out_of_bounds_action_4 6
scooby_predict_action_5 26
scooby_predict_issue_action_5 26
scooby_predict_hit_action_5 0
scooby_predict_out_of_bounds_action_5 4
scooby_predict_action_10 14
scooby_predict_issue_action_10 14
scooby_predict_hit_action_10 0
scooby_predict_out_of_bounds_action_10 11
scooby_predict_action_11 13
scooby_predict_issue_action_11 13
scooby_predict_hit_action_11 0
scooby_predict_out_of_bounds_action_11 2
scooby_predict_action_12 10
scooby_predict_issue_action_12 10
scooby_predict_hit_action_12 0
scooby_predict_out_of_bounds_action_12 3
scooby_predict_action_22 7
scooby_predict_issue_action_22 7
scooby_predict_hit_action_22 0
scooby_predict_out_of_bounds_action_22 9
scooby_predict_action_23 9
scooby_predict_issue_action_23 9
scooby_predict_hit_action_23 0
scooby_predict_out_of_bounds_action_23 7
scooby_predict_action_30 5
scooby_predict_issue_action_30 5
scooby_predict_hit_action_30 0
scooby_predict_out_of_bounds_action_30 9
scooby_predict_action_32 7
scooby_predict_issue_action_32 7
scooby_predict_hit_action_32 0
scooby_predict_out_of_bounds_action_32 8
scooby_predict_action_-1 15
scooby_predict_issue_action_-1 14
scooby_predict_hit_action_-1 1
scooby_predict_out_of_bounds_action_-1 0
scooby_predict_action_-3 10
scooby_predict_issue_action_-3 8
scooby_predict_hit_action_-3 2
scooby_predict_out_of_bounds_action_-3 0
scooby_predict_action_-6 9
scooby_predict_issue_action_-6 7
scooby_predict_hit_action_-6 2
scooby_predict_out_of_bounds_action_-6 0
scooby_predict_action_0 13
scooby_predict_issue_action_0 0
scooby_predict_hit_action_0 0
scooby_predict_out_of_bounds_action_0 0
scooby_predict_multi_deg_called 52753
scooby_predict_predicted 228482
scooby_predict_multi_deg 128064
scooby_predict_multi_deg_2 51157
scooby_predict_multi_deg_3 22297
scooby_predict_multi_deg_4 20885
scooby_predict_multi_deg_5 17031
scooby_predict_multi_deg_6 16694
scooby_predict_multi_deg_7 0
scooby_predict_multi_deg_8 0
scooby_predict_multi_deg_9 0
scooby_predict_multi_deg_10 0
scooby_predict_multi_deg_11 0
scooby_predict_multi_deg_12 0
scooby_predict_multi_deg_13 0
scooby_predict_multi_deg_14 0
scooby_predict_multi_deg_15 0
scooby_predict_multi_deg_16 0

scooby_selected_deg_1 47665
scooby_selected_deg_2 27629
scooby_selected_deg_3 0
scooby_selected_deg_4 6683
scooby_selected_deg_5 0
scooby_selected_deg_6 18441
scooby_selected_deg_7 0
scooby_selected_deg_8 0
scooby_selected_deg_9 0
scooby_selected_deg_10 0
scooby_selected_deg_11 0
scooby_selected_deg_12 0
scooby_selected_deg_13 0
scooby_selected_deg_14 0
scooby_selected_deg_15 0
scooby_selected_deg_16 0

scooby_state_4465e9|0|0 156,0,0,0,0,0,0,0,0,0,0,0,0,0,0,156,
scooby_state_446791|0|0 156,0,0,0,0,0,0,0,0,0,0,0,0,0,0,156,
scooby_state_446907|0|0 155,0,0,0,0,0,0,0,0,0,0,0,0,0,0,155,
scooby_state_446626|0|0 155,0,0,0,0,0,0,0,0,0,0,0,0,0,0,155,
scooby_state_4469ae|0|0 149,0,0,0,0,0,0,0,0,0,0,0,0,0,0,149,
scooby_state_4466d9|0|0 149,0,0,0,0,0,0,0,0,0,0,0,0,0,0,149,
scooby_state_44684c|0|0 148,0,0,0,0,0,0,0,0,0,0,0,0,0,0,148,
scooby_state_446902|36|1 108,0,0,0,0,0,0,0,0,0,0,0,0,0,0,108,
scooby_state_446902|0|0 108,0,0,0,0,0,0,0,0,0,0,0,0,0,0,108,
scooby_state_4467b9|0|0 108,0,0,0,0,0,0,0,0,0,0,0,0,0,0,108,
scooby_state_446635|33|1 107,0,0,0,0,0,0,0,0,0,0,0,0,0,0,107,
scooby_state_446902|47|1 107,0,0,0,0,0,0,0,0,0,0,0,0,0,0,107,
scooby_state_4467b9|36|1 107,0,0,0,0,0,0,0,0,0,0,0,0,0,0,107,
scooby_state_4467b9|52|1 107,0,0,0,0,0,0,0,0,0,0,0,0,0,0,107,
scooby_state_446635|39|1 107,0,0,0,0,0,0,0,0,0,0,0,0,0,0,107,
scooby_state_446635|43|1 107,0,0,0,0,0,0,0,0,0,0,0,0,0,0,107,
scooby_state_4467b9|61|1 107,0,0,0,0,0,0,0,0,0,0,0,0,0,0,107,
scooby_state_446902|52|1 107,0,0,0,0,0,0,0,0,0,0,0,0,0,0,107,
scooby_state_446902|48|1 107,0,0,0,0,0,0,0,0,0,0,0,0,0,0,107,
scooby_state_446635|59|1 107,0,0,0,0,0,0,0,0,0,0,0,0,0,0,107,
scooby_state_4467b9|33|1 106,0,0,0,0,0,0,0,0,0,1,0,0,0,0,107,
scooby_state_446635|38|1 107,0,0,0,0,0,0,0,0,0,0,0,0,0,0,107,
scooby_state_4467b9|35|1 106,1,0,0,0,0,0,0,0,0,0,0,0,0,0,107,
scooby_state_446902|32|1 107,0,0,0,0,0,0,0,0,0,0,0,0,0,0,107,
scooby_state_446902|43|1 106,1,0,0,0,0,0,0,0,0,0,0,0,0,0,107,
scooby_state_446902|38|1 107,0,0,0,0,0,0,0,0,0,0,0,0,0,0,107,
scooby_state_446635|61|1 105,0,0,0,1,0,0,1,0,0,0,0,0,0,0,107,
scooby_state_4467b9|41|1 107,0,0,0,0,0,0,0,0,0,0,0,0,0,0,107,
scooby_state_446902|62|1 107,0,0,0,0,0,0,0,0,0,0,0,0,0,0,107,
scooby_state_446635|41|1 106,1,0,0,0,0,0,0,0,0,0,0,0,0,0,107,
scooby_state_4467b9|34|1 107,0,0,0,0,0,0,0,0,0,0,0,0,0,0,107,
scooby_state_446635|58|1 107,0,0,0,0,0,0,0,0,0,0,0,0,0,0,107,
scooby_state_4467b9|50|1 107,0,0,0,0,0,0,0,0,0,0,0,0,0,0,107,
scooby_state_446902|50|1 107,0,0,0,0,0,0,0,0,0,0,0,0,0,0,107,
scooby_state_4467b9|31|1 107,0,0,0,0,0,0,0,0,0,0,0,0,0,0,107,
scooby_state_4467b9|58|1 107,0,0,0,0,0,0,0,0,0,0,0,0,0,0,107,
scooby_state_4467b9|44|1 107,0,0,0,0,0,0,0,0,0,0,0,0,0,0,107,
scooby_state_446635|46|1 107,0,0,0,0,0,0,0,0,0,0,0,0,0,0,107,
scooby_state_446902|59|1 107,0,0,0,0,0,0,0,0,0,0,0,0,0,0,107,
scooby_state_4467b9|49|1 107,0,0,0,0,0,0,0,0,0,0,0,0,0,0,107,
scooby_state_446902|45|1 107,0,0,0,0,0,0,0,0,0,0,0,0,0,0,107,
scooby_state_446902|39|1 107,0,0,0,0,0,0,0,0,0,0,0,0,0,0,107,
scooby_state_4467b9|42|1 106,1,0,0,0,0,0,0,0,0,0,0,0,0,0,107,
scooby_state_4467b9|46|1 107,0,0,0,0,0,0,0,0,0,0,0,0,0,0,107,
scooby_state_446902|55|1 107,0,0,0,0,0,0,0,0,0,0,0,0,0,0,107,
scooby_state_4467b9|30|1 107,0,0,0,0,0,0,0,0,0,0,0,0,0,0,107,
scooby_state_446902|49|1 107,0,0,0,0,0,0,0,0,0,0,0,0,0,0,107,
scooby_state_446635|55|1 107,0,0,0,0,0,0,0,0,0,0,0,0,0,0,107,
scooby_state_4467b9|59|1 107,0,0,0,0,0,0,0,0,0,0,0,0,0,0,107,
scooby_state_446635|48|1 107,0,0,0,0,0,0,0,0,0,0,0,0,0,0,107,
scooby_state_4467b9|37|1 107,0,0,0,0,0,0,0,0,0,0,0,0,0,0,107,
scooby_state_446902|44|1 106,1,0,0,0,0,0,0,0,0,0,0,0,0,0,107,
scooby_state_4467b9|45|1 107,0,0,0,0,0,0,0,0,0,0,0,0,0,0,107,
scooby_state_446635|36|1 107,0,0,0,0,0,0,0,0,0,0,0,0,0,0,107,
scooby_state_446902|56|1 107,0,0,0,0,0,0,0,0,0,0,0,0,0,0,107,
scooby_state_446902|42|1 107,0,0,0,0,0,0,0,0,0,0,0,0,0,0,107,
scooby_state_4467b9|54|1 107,0,0,0,0,0,0,0,0,0,0,0,0,0,0,107,
scooby_state_446635|63|1 107,0,0,0,0,0,0,0,0,0,0,0,0,0,0,107,
scooby_state_446635|32|1 107,0,0,0,0,0,0,0,0,0,0,0,0,0,0,107,
scooby_state_446635|49|1 107,0,0,0,0,0,0,0,0,0,0,0,0,0,0,107,
scooby_state_4467b9|57|1 107,0,0,0,0,0,0,0,0,0,0,0,0,0,0,107,
scooby_state_446635|44|1 106,0,0,0,0,0,0,0,0,0,0,0,1,0,0,107,
scooby_state_446635|52|1 106,0,0,0,0,0,1,0,0,0,0,0,0,0,0,107,
scooby_state_446635|45|1 107,0,0,0,0,0,0,0,0,0,0,0,0,0,0,107,
scooby_state_4467b9|51|1 107,0,0,0,0,0,0,0,0,0,0,0,0,0,0,107,
scooby_state_446635|60|1 107,0,0,0,0,0,0,0,0,0,0,0,0,0,0,107,
scooby_state_4467b9|47|1 107,0,0,0,0,0,0,0,0,0,0,0,0,0,0,107,
scooby_state_446635|56|1 106,0,0,0,0,0,0,0,1,0,0,0,0,0,0,107,
scooby_state_4467b9|38|1 107,0,0,0,0,0,0,0,0,0,0,0,0,0,0,107,
scooby_state_446635|42|1 107,0,0,0,0,0,0,0,0,0,0,0,0,0,0,107,
scooby_state_4467b9|60|1 107,0,0,0,0,0,0,0,0,0,0,0,0,0,0,107,
scooby_state_446635|30|1 107,0,0,0,0,0,0,0,0,0,0,0,0,0,0,107,
scooby_state_446902|60|1 107,0,0,0,0,0,0,0,0,0,0,0,0,0,0,107,
scooby_state_446902|61|1 107,0,0,0,0,0,0,0,0,0,0,0,0,0,0,107,
scooby_state_4467b9|32|1 107,0,0,0,0,0,0,0,0,0,0,0,0,0,0,107,
scooby_state_446635|31|1 107,0,0,0,0,0,0,0,0,0,0,0,0,0,0,107,
scooby_state_446635|35|1 107,0,0,0,0,0,0,0,0,0,0,0,0,0,0,107,
scooby_state_446902|51|1 107,0,0,0,0,0,0,0,0,0,0,0,0,0,0,107,
scooby_state_446635|62|1 107,0,0,0,0,0,0,0,0,0,0,0,0,0,0,107,
scooby_state_446902|34|1 107,0,0,0,0,0,0,0,0,0,0,0,0,0,0,107,
scooby_state_446902|41|1 106,1,0,0,0,0,0,0,0,0,0,0,0,0,0,107,
scooby_state_446635|37|1 107,0,0,0,0,0,0,0,0,0,0,0,0,0,0,107,
scooby_state_4467b9|56|1 107,0,0,0,0,0,0,0,0,0,0,0,0,0,0,107,
scooby_state_446902|46|1 107,0,0,0,0,0,0,0,0,0,0,0,0,0,0,107,
scooby_state_446902|35|1 107,0,0,0,0,0,0,0,0,0,0,0,0,0,0,107,
scooby_state_446902|57|1 107,0,0,0,0,0,0,0,0,0,0,0,0,0,0,107,
scooby_state_4467b9|62|1 106,0,0,1,0,0,0,0,0,0,0,0,0,0,0,107,
scooby_state_4467b9|63|1 107,0,0,0,0,0,0,0,0,0,0,0,0,0,0,107,
scooby_state_446635|0|0 107,0,0,0,0,0,0,0,0,0,0,0,0,0,0,107,
scooby_state_446635|47|1 107,0,0,0,0,0,0,0,0,0,0,0,0,0,0,107,
scooby_state_446635|50|1 106,0,0,0,0,0,0,1,0,0,0,0,0,0,0,107,
scooby_state_446902|53|1 107,0,0,0,0,0,0,0,0,0,0,0,0,0,0,107,
scooby_state_446902|54|1 107,0,0,0,0,0,0,0,0,0,0,0,0,0,0,107,
scooby_state_446635|53|1 107,0,0,0,0,0,0,0,0,0,0,0,0,0,0,107,
scooby_state_446902|33|1 107,0,0,0,0,0,0,0,0,0,0,0,0,0,0,107,
scooby_state_4467b9|53|1 107,0,0,0,0,0,0,0,0,0,0,0,0,0,0,107,
scooby_state_446635|51|1 106,0,0,0,0,0,0,0,0,0,1,0,0,0,0,107,
scooby_state_446635|40|1 107,0,0,0,0,0,0,0,0,0,0,0,0,0,0,107,
scooby_state_4467b9|55|1 107,0,0,0,0,0,0,0,0,0,0,0,0,0,0,107,
scooby_state_446902|37|1 106,0,0,0,0,0,0,0,0,0,0,0,0,1,0,107,
scooby_state_446635|57|1 107,0,0,0,0,0,0,0,0,0,0,0,0,0,0,107,
scooby_state_4467b9|40|1 107,0,0,0,0,0,0,0,0,0,0,0,0,0,0,107,
scooby_state_446902|40|1 107,0,0,0,0,0,0,0,0,0,0,0,0,0,0,107,
scooby_state_446902|58|1 106,0,0,0,0,0,0,0,0,0,0,0,0,0,1,107,
scooby_state_446902|63|1 107,0,0,0,0,0,0,0,0,0,0,0,0,0,0,107,
scooby_state_4467b9|48|1 107,0,0,0,0,0,0,0,0,0,0,0,0,0,0,107,
scooby_state_446635|34|1 107,0,0,0,0,0,0,0,0,0,0,0,0,0,0,107,
scooby_state_446902|31|1 106,0,0,0,0,1,0,0,0,0,0,0,0,0,0,107,
scooby_state_446635|54|1 107,0,0,0,0,0,0,0,0,0,0,0,0,0,0,107,
scooby_state_4467b9|43|1 106,0,1,0,0,0,0,0,0,0,0,0,0,0,0,107,
scooby_state_4467b9|39|1 107,0,0,0,0,0,0,0,0,0,0,0,0,0,0,107,
scooby_state_446635|17|1 106,0,0,0,0,0,0,0,0,0,0,0,0,0,0,106,
scooby_state_446902|9|1 106,0,0,0,0,0,0,0,0,0,0,0,0,0,0,106,
scooby_state_446902|22|1 106,0,0,0,0,0,0,0,0,0,0,0,0,0,0,106,
scooby_state_4467b9|14|1 106,0,0,0,0,0,0,0,0,0,0,0,0,0,0,106,
scooby_state_4467b9|4|1 106,0,0,0,0,0,0,0,0,0,0,0,0,0,0,106,
scooby_state_446902|17|1 106,0,0,0,0,0,0,0,0,0,0,0,0,0,0,106,
scooby_state_446902|30|1 105,0,0,0,0,0,0,0,0,0,0,0,1,0,0,106,
scooby_state_4467b9|17|1 106,0,0,0,0,0,0,0,0,0,0,0,0,0,0,106,
scooby_state_446635|11|1 106,0,0,0,0,0,0,0,0,0,0,0,0,0,0,106,
scooby_state_446902|23|1 106,0,0,0,0,0,0,0,0,0,0,0,0,0,0,106,
scooby_state_446902|14|1 106,0,0,0,0,0,0,0,0,0,0,0,0,0,0,106,
scooby_state_446902|10|1 106,0,0,0,0,0,0,0,0,0,0,0,0,0,0,106,
scooby_state_446902|25|1 106,0,0,0,0,0,0,0,0,0,0,0,0,0,0,106,
scooby_state_446902|15|1 106,0,0,0,0,0,0,0,0,0,0,0,0,0,0,106,
scooby_state_446902|6|1 106,0,0,0,0,0,0,0,0,0,0,0,0,0,0,106,
scooby_state_4467b9|2|1 105,0,0,0,1,0,0,0,0,0,0,0,0,0,0,106,
scooby_state_4467b9|27|1 106,0,0,0,0,0,0,0,0,0,0,0,0,0,0,106,
scooby_state_446635|2|1 106,0,0,0,0,0,0,0,0,0,0,0,0,0,0,106,
scooby_state_446902|16|1 106,0,0,0,0,0,0,0,0,0,0,0,0,0,0,106,
scooby_state_4467b9|20|1 106,0,0,0,0,0,0,0,0,0,0,0,0,0,0,106,
scooby_state_446635|27|1 106,0,0,0,0,0,0,0,0,0,0,0,0,0,0,106,
scooby_state_4467b9|25|1 106,0,0,0,0,0,0,0,0,0,0,0,0,0,0,106,
scooby_state_4467b9|9|1 106,0,0,0,0,0,0,0,0,0,0,0,0,0,0,106,
scooby_state_4467b9|16|1 106,0,0,0,0,0,0,0,0,0,0,0,0,0,0,106,
scooby_state_446635|4|1 105,0,0,0,1,0,0,0,0,0,0,0,0,0,0,106,
scooby_state_446902|5|1 105,0,0,0,0,0,0,0,1,0,0,0,0,0,0,106,
scooby_state_446902|13|1 106,0,0,0,0,0,0,0,0,0,0,0,0,0,0,106,
scooby_state_446635|10|1 106,0,0,0,0,0,0,0,0,0,0,0,0,0,0,106,
scooby_state_4467b9|13|1 106,0,0,0,0,0,0,0,0,0,0,0,0,0,0,106,
scooby_state_4467b9|22|1 105,0,0,0,0,1,0,0,0,0,0,0,0,0,0,106,
scooby_state_446902|11|1 105,0,0,0,0,1,0,0,0,0,0,0,0,0,0,106,
scooby_state_4467b9|10|1 105,0,0,0,1,0,0,0,0,0,0,0,0,0,0,106,
scooby_state_4467b9|26|1 106,0,0,0,0,0,0,0,0,0,0,0,0,0,0,106,
scooby_state_4467b9|12|1 106,0,0,0,0,0,0,0,0,0,0,0,0,0,0,106,
scooby_state_4467b9|7|1 106,0,0,0,0,0,0,0,0,0,0,0,0,0,0,106,
scooby_state_4467b9|29|1 106,0,0,0,0,0,0,0,0,0,0,0,0,0,0,106,
scooby_state_446902|27|1 106,0,0,0,0,0,0,0,0,0,0,0,0,0,0,106,
scooby_state_446635|29|1 106,0,0,0,0,0,0,0,0,0,0,0,0,0,0,106,
scooby_state_446635|18|1 106,0,0,0,0,0,0,0,0,0,0,0,0,0,0,106,
scooby_state_446635|13|1 106,0,0,0,0,0,0,0,0,0,0,0,0,0,0,106,
scooby_state_446635|12|1 106,0,0,0,0,0,0,0,0,0,0,0,0,0,0,106,
scooby_state_446635|7|1 106,0,0,0,0,0,0,0,0,0,0,0,0,0,0,106,
scooby_state_4467b9|6|1 106,0,0,0,0,0,0,0,0,0,0,0,0,0,0,106,
scooby_state_4467b9|15|1 106,0,0,0,0,0,0,0,0,0,0,0,0,0,0,106,
scooby_state_446902|18|1 106,0,0,0,0,0,0,0,0,0,0,0,0,0,0,106,
scooby_state_4467b9|11|1 106,0,0,0,0,0,0,0,0,0,0,0,0,0,0,106,
scooby_state_4467b9|28|1 106,0,0,0,0,0,0,0,0,0,0,0,0,0,0,106,
scooby_state_446902|26|1 106,0,0,0,0,0,0,0,0,0,0,0,0,0,0,106,
scooby_state_446635|26|1 106,0,0,0,0,0,0,0,0,0,0,0,0,0,0,106,
scooby_state_446902|1|1 106,0,0,0,0,0,0,0,0,0,0,0,0,0,0,106,
scooby_state_446902|29|1 106,0,0,0,0,0,0,0,0,0,0,0,0,0,0,106,
scooby_state_4467b9|1|1 106,0,0,0,0,0,0,0,0,0,0,0,0,0,0,106,
scooby_state_446635|1|1 106,0,0,0,0,0,0,0,0,0,0,0,0,0,0,106,
scooby_state_4467b9|19|1 106,0,0,0,0,0,0,0,0,0,0,0,0,0,0,106,
scooby_state_446635|28|1 106,0,0,0,0,0,0,0,0,0,0,0,0,0,0,106,
scooby_state_446635|3|1 106,0,0,0,0,0,0,0,0,0,0,0,0,0,0,106,
scooby_state_4467b9|8|1 106,0,0,0,0,0,0,0,0,0,0,0,0,0,0,106,
scooby_state_446635|24|1 106,0,0,0,0,0,0,0,0,0,0,0,0,0,0,106,
scooby_state_446635|8|1 106,0,0,0,0,0,0,0,0,0,0,0,0,0,0,106,
scooby_state_4467b9|3|1 106,0,0,0,0,0,0,0,0,0,0,0,0,0,0,106,
scooby_state_4467b9|18|1 106,0,0,0,0,0,0,0,0,0,0,0,0,0,0,106,
scooby_state_446902|8|1 106,0,0,0,0,0,0,0,0,0,0,0,0,0,0,106,
scooby_state_446635|20|1 106,0,0,0,0,0,0,0,0,0,0,0,0,0,0,106,
scooby_state_446902|21|1 106,0,0,0,0,0,0,0,0,0,0,0,0,0,0,106,
scooby_state_446902|12|1 106,0,0,0,0,0,0,0,0,0,0,0,0,0,0,106,
scooby_state_446635|19|1 106,0,0,0,0,0,0,0,0,0,0,0,0,0,0,106,
scooby_state_446902|19|1 105,0,0,0,0,0,0,1,0,0,0,0,0,0,0,106,
scooby_state_446635|5|1 106,0,0,0,0,0,0,0,0,0,0,0,0,0,0,106,
scooby_state_446902|7|1 106,0,0,0,0,0,0,0,0,0,0,0,0,0,0,106,
scooby_state_446635|15|1 106,0,0,0,0,0,0,0,0,0,0,0,0,0,0,106,
scooby_state_4467b9|5|1 106,0,0,0,0,0,0,0,0,0,0,0,0,0,0,106,
scooby_state_446635|21|1 105,0,0,1,0,0,0,0,0,0,0,0,0,0,0,106,
scooby_state_4467b9|21|1 106,0,0,0,0,0,0,0,0,0,0,0,0,0,0,106,
scooby_state_446635|14|1 106,0,0,0,0,0,0,0,0,0,0,0,0,0,0,106,
scooby_state_446635|16|1 106,0,0,0,0,0,0,0,0,0,0,0,0,0,0,106,
scooby_state_446635|25|1 106,0,0,0,0,0,0,0,0,0,0,0,0,0,0,106,
scooby_state_446902|3|1 106,0,0,0,0,0,0,0,0,0,0,0,0,0,0,106,
scooby_state_446902|24|1 105,0,0,0,0,0,0,0,0,1,0,0,0,0,0,106,
scooby_state_4467b9|24|1 106,0,0,0,0,0,0,0,0,0,0,0,0,0,0,106,
scooby_state_446902|28|1 105,1,0,0,0,0,0,0,0,0,0,0,0,0,0,106,
scooby_state_446902|20|1 106,0,0,0,0,0,0,0,0,0,0,0,0,0,0,106,
scooby_state_446902|4|1 106,0,0,0,0,0,0,0,0,0,0,0,0,0,0,106,
scooby_state_446635|22|1 105,0,0,0,0,0,0,0,0,0,0,0,0,1,0,106,
scooby_state_4467b9|23|1 105,0,0,1,0,0,0,0,0,0,0,0,0,0,0,106,
scooby_state_446635|23|1 106,0,0,0,0,0,0,0,0,0,0,0,0,0,0,106,
scooby_state_446635|6|1 106,0,0,0,0,0,0,0,0,0,0,0,0,0,0,106,
scooby_state_446635|9|1 106,0,0,0,0,0,0,0,0,0,0,0,0,0,0,106,
scooby_state_446902|2|1 106,0,0,0,0,0,0,0,0,0,0,0,0,0,0,106,
scooby_state_44691c|7|1 100,0,0,0,0,0,0,0,0,0,0,0,0,0,0,100,
scooby_state_44691c|32|1 100,0,0,0,0,0,0,0,0,0,0,0,0,0,0,100,
scooby_state_44691c|6|1 100,0,0,0,0,0,0,0,0,0,0,0,0,0,0,100,
scooby_state_44691c|52|1 99,0,0,0,0,0,0,0,0,0,0,0,0,0,1,100,
scooby_state_44691c|55|1 100,0,0,0,0,0,0,0,0,0,0,0,0,0,0,100,
scooby_state_44691c|8|1 98,0,0,1,0,0,0,0,1,0,0,0,0,0,0,100,
scooby_state_44691c|33|1 100,0,0,0,0,0,0,0,0,0,0,0,0,0,0,100,
scooby_state_44691c|53|1 100,0,0,0,0,0,0,0,0,0,0,0,0,0,0,100,
scooby_state_44691c|31|1 100,0,0,0,0,0,0,0,0,0,0,0,0,0,0,100,
scooby_state_44691c|34|1 99,0,0,0,0,0,0,0,0,0,0,0,0,0,0,99,
scooby_state_44691c|25|1 98,0,0,0,0,0,0,1,0,0,0,0,0,0,0,99,
scooby_state_44691c|14|1 97,1,0,0,0,0,0,0,0,0,0,0,0,0,1,99,
scooby_state_44691c|48|1 99,0,0,0,0,0,0,0,0,0,0,0,0,0,0,99,
scooby_state_44691c|12|1 99,0,0,0,0,0,0,0,0,0,0,0,0,0,0,99,
scooby_state_44691c|29|1 99,0,0,0,0,0,0,0,0,0,0,0,0,0,0,99,
scooby_state_44691c|50|1 99,0,0,0,0,0,0,0,0,0,0,0,0,0,0,99,
scooby_state_44691c|28|1 99,0,0,0,0,0,0,0,0,0,0,0,0,0,0,99,
scooby_state_44691c|57|1 99,0,0,0,0,0,0,0,0,0,0,0,0,0,0,99,
scooby_state_44691c|5|1 99,0,0,0,0,0,0,0,0,0,0,0,0,0,0,99,
scooby_state_44691c|11|1 99,0,0,0,0,0,0,0,0,0,0,0,0,0,0,99,
scooby_state_44691c|30|1 99,0,0,0,0,0,0,0,0,0,0,0,0,0,0,99,
scooby_state_44691c|49|1 98,1,0,0,0,0,0,0,0,0,0,0,0,0,0,99,
scooby_state_44691c|54|1 98,0,0,0,0,0,0,0,0,0,1,0,0,0,0,99,
scooby_state_44691c|4|1 98,1,0,0,0,0,0,0,0,0,0,0,0,0,0,99,
scooby_state_44691c|9|1 99,0,0,0,0,0,0,0,0,0,0,0,0,0,0,99,
scooby_state_44691c|26|1 98,0,0,0,0,0,0,0,0,0,0,1,0,0,0,99,
scooby_state_44691c|13|1 99,0,0,0,0,0,0,0,0,0,0,0,0,0,0,99,
scooby_state_44691c|51|1 99,0,0,0,0,0,0,0,0,0,0,0,0,0,0,99,
scooby_state_44691c|35|1 97,0,1,0,0,0,0,0,0,0,0,0,0,1,0,99,
scooby_state_44691c|41|1 98,0,0,0,0,0,0,0,0,0,0,0,0,0,0,98,
scooby_state_44691c|56|1 98,0,0,0,0,0,0,0,0,0,0,0,0,0,0,98,
scooby_state_44691c|10|1 98,0,0,0,0,0,0,0,0,0,0,0,0,0,0,98,
scooby_state_44691c|27|1 98,0,0,0,0,0,0,0,0,0,0,0,0,0,0,98,
scooby_state_44691c|24|1 98,0,0,0,0,0,0,0,0,0,0,0,0,0,0,98,
scooby_state_44691c|61|1 98,0,0,0,0,0,0,0,0,0,0,0,0,0,0,98,
scooby_state_44691c|15|1 98,0,0,0,0,0,0,0,0,0,0,0,0,0,0,98,
scooby_state_44691c|47|1 98,0,0,0,0,0,0,0,0,0,0,0,0,0,0,98,
scooby_state_44691c|62|1 96,1,0,0,0,0,0,1,0,0,0,0,0,0,0,98,
scooby_state_44691c|44|1 98,0,0,0,0,0,0,0,0,0,0,0,0,0,0,98,
scooby_state_44691c|42|1 98,0,0,0,0,0,0,0,0,0,0,0,0,0,0,98,
scooby_state_44691c|22|1 98,0,0,0,0,0,0,0,0,0,0,0,0,0,0,98,
scooby_state_44691c|36|1 97,0,0,0,0,0,0,0,0,1,0,0,0,0,0,98,
scooby_state_44691c|0|0 98,0,0,0,0,0,0,0,0,0,0,0,0,0,0,98,
scooby_state_44691c|17|1 97,0,0,0,0,0,0,0,0,0,0,0,0,0,1,98,
scooby_state_44691c|60|1 98,0,0,0,0,0,0,0,0,0,0,0,0,0,0,98,
scooby_state_44691c|39|1 98,0,0,0,0,0,0,0,0,0,0,0,0,0,0,98,
scooby_state_44691c|46|1 98,0,0,0,0,0,0,0,0,0,0,0,0,0,0,98,
scooby_state_44691c|43|1 97,1,0,0,0,0,0,0,0,0,0,0,0,0,0,98,
scooby_state_44691c|59|1 98,0,0,0,0,0,0,0,0,0,0,0,0,0,0,98,
scooby_state_44691c|23|1 97,0,1,0,0,0,0,0,0,0,0,0,0,0,0,98,
scooby_state_44691c|1|1 97,0,0,0,0,0,0,0,0,0,0,0,0,0,0,97,
scooby_state_44691c|63|1 97,0,0,0,0,0,0,0,0,0,0,0,0,0,0,97,
scooby_state_44691c|58|1 96,0,0,0,0,0,0,0,0,1,0,0,0,0,0,97,
scooby_state_44691c|3|1 96,1,0,0,0,0,0,0,0,0,0,0,0,0,0,97,
scooby_state_44691c|19|1 97,0,0,0,0,0,0,0,0,0,0,0,0,0,0,97,
scooby_state_44691c|21|1 97,0,0,0,0,0,0,0,0,0,0,0,0,0,0,97,
scooby_state_44691c|16|1 97,0,0,0,0,0,0,0,0,0,0,0,0,0,0,97,
scooby_state_44691c|2|1 97,0,0,0,0,0,0,0,0,0,0,0,0,0,0,97,
scooby_state_44691c|38|1 96,1,0,0,0,0,0,0,0,0,0,0,0,0,0,97,
scooby_state_44691c|37|1 97,0,0,0,0,0,0,0,0,0,0,0,0,0,0,97,
scooby_state_44691c|20|1 97,0,0,0,0,0,0,0,0,0,0,0,0,0,0,97,
scooby_state_44691c|18|1 97,0,0,0,0,0,0,0,0,0,0,0,0,0,0,97,
scooby_state_44691c|40|1 97,0,0,0,0,0,0,0,0,0,0,0,0,0,0,97,
scooby_state_44691c|45|1 96,0,0,0,0,0,0,0,0,0,0,0,0,0,0,96,
scooby_state_446907|9|1 92,0,0,0,0,0,0,0,0,0,0,0,0,0,0,92,
scooby_state_4465e9|63|1 92,0,0,0,0,0,0,0,0,0,0,0,0,0,0,92,
scooby_state_446907|55|1 92,0,0,0,0,0,0,0,0,0,0,0,0,0,0,92,
scooby_state_4465e9|62|1 92,0,0,0,0,0,0,0,0,0,0,0,0,0,0,92,
scooby_state_446626|31|1 92,0,0,0,0,0,0,0,0,0,0,0,0,0,0,92,
scooby_state_446791|62|1 92,0,0,0,0,0,0,0,0,0,0,0,0,0,0,92,
scooby_state_446626|9|1 92,0,0,0,0,0,0,0,0,0,0,0,0,0,0,92,
scooby_state_446626|55|1 92,0,0,0,0,0,0,0,0,0,0,0,0,0,0,92,
scooby_state_446907|54|1 92,0,0,0,0,0,0,0,0,0,0,0,0,0,0,92,
scooby_state_4465e9|61|1 92,0,0,0,0,0,0,0,0,0,0,0,0,0,0,92,
scooby_state_446791|61|1 92,0,0,0,0,0,0,0,0,0,0,0,0,0,0,92,
scooby_state_446791|63|1 92,0,0,0,0,0,0,0,0,0,0,0,0,0,0,92,
scooby_state_4465e9|22|1 92,0,0,0,0,0,0,0,0,0,0,0,0,0,0,92,
scooby_state_446626|52|1 92,0,0,0,0,0,0,0,0,0,0,0,0,0,0,92,
scooby_state_446907|52|1 92,0,0,0,0,0,0,0,0,0,0,0,0,0,0,92,
scooby_state_4465e9|43|1 92,0,0,0,0,0,0,0,0,0,0,0,0,0,0,92,
scooby_state_446626|54|1 91,0,0,0,0,0,0,0,0,0,0,0,0,0,1,92,
scooby_state_446791|22|1 91,0,0,0,0,0,1,0,0,0,0,0,0,0,0,92,
scooby_state_446791|43|1 92,0,0,0,0,0,0,0,0,0,0,0,0,0,0,92,
scooby_state_446626|29|1 91,0,0,0,0,0,0,0,0,0,0,0,0,0,0,91,
scooby_state_446791|19|1 91,0,0,0,0,0,0,0,0,0,0,0,0,0,0,91,
scooby_state_4465e9|21|1 91,0,0,0,0,0,0,0,0,0,0,0,0,0,0,91,
scooby_state_446791|46|1 91,0,0,0,0,0,0,0,0,0,0,0,0,0,0,91,
scooby_state_4465e9|42|1 91,0,0,0,0,0,0,0,0,0,0,0,0,0,0,91,
scooby_state_4465e9|24|1 91,0,0,0,0,0,0,0,0,0,0,0,0,0,0,91,
scooby_state_4465e9|19|1 91,0,0,0,0,0,0,0,0,0,0,0,0,0,0,91,
scooby_state_4465e9|17|1 91,0,0,0,0,0,0,0,0,0,0,0,0,0,0,91,
scooby_state_446791|44|1 91,0,0,0,0,0,0,0,0,0,0,0,0,0,0,91,
scooby_state_4465e9|20|1 91,0,0,0,0,0,0,0,0,0,0,0,0,0,0,91,
scooby_state_446791|24|1 91,0,0,0,0,0,0,0,0,0,0,0,0,0,0,91,
scooby_state_446791|42|1 90,0,0,0,0,0,0,0,0,0,0,0,0,1,0,91,
scooby_state_446907|8|1 91,0,0,0,0,0,0,0,0,0,0,0,0,0,0,91,
scooby_state_4465e9|46|1 91,0,0,0,0,0,0,0,0,0,0,0,0,0,0,91,
scooby_state_4465e9|41|1 91,0,0,0,0,0,0,0,0,0,0,0,0,0,0,91,
scooby_state_446907|53|1 91,0,0,0,0,0,0,0,0,0,0,0,0,0,0,91,
scooby_state_446907|33|1 91,0,0,0,0,0,0,0,0,0,0,0,0,0,0,91,
scooby_state_446626|53|1 91,0,0,0,0,0,0,0,0,0,0,0,0,0,0,91,
scooby_state_446626|36|1 91,0,0,0,0,0,0,0,0,0,0,0,0,0,0,91,
scooby_state_446791|16|1 91,0,0,0,0,0,0,0,0,0,0,0,0,0,0,91,
scooby_state_4465e9|44|1 91,0,0,0,0,0,0,0,0,0,0,0,0,0,0,91,
scooby_state_4465e9|16|1 90,0,0,0,0,0,0,0,0,0,0,1,0,0,0,91,
scooby_state_446791|39|1 91,0,0,0,0,0,0,0,0,0,0,0,0,0,0,91,
scooby_state_4465e9|40|1 91,0,0,0,0,0,0,0,0,0,0,0,0,0,0,91,
scooby_state_446791|21|1 91,0,0,0,0,0,0,0,0,0,0,0,0,0,0,91,
scooby_state_446907|32|1 91,0,0,0,0,0,0,0,0,0,0,0,0,0,0,91,
scooby_state_4465e9|59|1 91,0,0,0,0,0,0,0,0,0,0,0,0,0,0,91,
scooby_state_446791|20|1 90,0,0,0,0,0,0,0,0,0,0,0,0,0,1,91,
scooby_state_4465e9|60|1 91,0,0,0,0,0,0,0,0,0,0,0,0,0,0,91,
scooby_state_446626|12|1 91,0,0,0,0,0,0,0,0,0,0,0,0,0,0,91,
scooby_state_446907|29|1 91,0,0,0,0,0,0,0,0,0,0,0,0,0,0,91,
scooby_state_446626|32|1 91,0,0,0,0,0,0,0,0,0,0,0,0,0,0,91,
scooby_state_446626|56|1 91,0,0,0,0,0,0,0,0,0,0,0,0,0,0,91,
scooby_state_4465e9|39|1 90,0,0,0,1,0,0,0,0,0,0,0,0,0,0,91,
scooby_state_446626|8|1 91,0,0,0,0,0,0,0,0,0,0,0,0,0,0,91,
scooby_state_446791|59|1 90,0,0,0,0,0,0,0,0,0,0,0,0,0,1,91,
scooby_state_446626|33|1 91,0,0,0,0,0,0,0,0,0,0,0,0,0,0,91,
scooby_state_446907|36|1 91,0,0,0,0,0,0,0,0,0,0,0,0,0,0,91,
scooby_state_446626|7|1 91,0,0,0,0,0,0,0,0,0,0,0,0,0,0,91,
scooby_state_446907|56|1 90,0,0,0,0,1,0,0,0,0,0,0,0,0,0,91,
scooby_state_446907|7|1 91,0,0,0,0,0,0,0,0,0,0,0,0,0,0,91,
scooby_state_446907|12|1 91,0,0,0,0,0,0,0,0,0,0,0,0,0,0,91,
scooby_state_446791|41|1 91,0,0,0,0,0,0,0,0,0,0,0,0,0,0,91,
scooby_state_446791|60|1 91,0,0,0,0,0,0,0,0,0,0,0,0,0,0,91,
scooby_state_4465e9|23|1 91,0,0,0,0,0,0,0,0,0,0,0,0,0,0,91,
scooby_state_446791|40|1 91,0,0,0,0,0,0,0,0,0,0,0,0,0,0,91,
scooby_state_446907|31|1 91,0,0,0,0,0,0,0,0,0,0,0,0,0,0,91,
scooby_state_446791|17|1 91,0,0,0,0,0,0,0,0,0,0,0,0,0,0,91,
scooby_state_446791|23|1 91,0,0,0,0,0,0,0,0,0,0,0,0,0,0,91,
scooby_state_4465e9|45|1 90,0,0,0,0,0,0,0,0,0,0,0,0,0,0,90,
scooby_state_446791|4|1 90,0,0,0,0,0,0,0,0,0,0,0,0,0,0,90,
scooby_state_446791|55|1 90,0,0,0,0,0,0,0,0,0,0,0,0,0,0,90,
scooby_state_446907|15|1 90,0,0,0,0,0,0,0,0,0,0,0,0,0,0,90,
scooby_state_4465e9|50|1 90,0,0,0,0,0,0,0,0,0,0,0,0,0,0,90,
scooby_state_446791|30|1 90,0,0,0,0,0,0,0,0,0,0,0,0,0,0,90,
scooby_state_446626|57|1 90,0,0,0,0,0,0,0,0,0,0,0,0,0,0,90,
scooby_state_4465e9|30|1 90,0,0,0,0,0,0,0,0,0,0,0,0,0,0,90,
scooby_state_446626|35|1 90,0,0,0,0,0,0,0,0,0,0,0,0,0,0,90,
scooby_state_446791|2|1 90,0,0,0,0,0,0,0,0,0,0,0,0,0,0,90,
scooby_state_446626|6|1 90,0,0,0,0,0,0,0,0,0,0,0,0,0,0,90,
scooby_state_446907|27|1 90,0,0,0,0,0,0,0,0,0,0,0,0,0,0,90,
scooby_state_446791|18|1 90,0,0,0,0,0,0,0,0,0,0,0,0,0,0,90,
scooby_state_446626|47|1 90,0,0,0,0,0,0,0,0,0,0,0,0,0,0,90,
scooby_state_446626|63|1 90,0,0,0,0,0,0,0,0,0,0,0,0,0,0,90,
scooby_state_4465e9|48|1 90,0,0,0,0,0,0,0,0,0,0,0,0,0,0,90,
scooby_state_446626|61|1 90,0,0,0,0,0,0,0,0,0,0,0,0,0,0,90,
scooby_state_4465e9|57|1 89,0,0,0,0,0,0,1,0,0,0,0,0,0,0,90,
scooby_state_446626|11|1 90,0,0,0,0,0,0,0,0,0,0,0,0,0,0,90,
scooby_state_446791|50|1 90,0,0,0,0,0,0,0,0,0,0,0,0,0,0,90,
scooby_state_446907|57|1 90,0,0,0,0,0,0,0,0,0,0,0,0,0,0,90,
scooby_state_4465e9|32|1 89,0,0,0,0,0,0,0,1,0,0,0,0,0,0,90,
scooby_state_446907|28|1 90,0,0,0,0,0,0,0,0,0,0,0,0,0,0,90,
scooby_state_4465e9|37|1 90,0,0,0,0,0,0,0,0,0,0,0,0,0,0,90,
scooby_state_446907|50|1 89,0,0,0,0,0,1,0,0,0,0,0,0,0,0,90,
scooby_state_4465e9|35|1 90,0,0,0,0,0,0,0,0,0,0,0,0,0,0,90,
scooby_state_446907|30|1 90,0,0,0,0,0,0,0,0,0,0,0,0,0,0,90,
scooby_state_446626|30|1 89,0,0,1,0,0,0,0,0,0,0,0,0,0,0,90,
scooby_state_446791|6|1 90,0,0,0,0,0,0,0,0,0,0,0,0,0,0,90,
scooby_state_446791|3|1 90,0,0,0,0,0,0,0,0,0,0,0,0,0,0,90,
scooby_state_446626|24|1 90,0,0,0,0,0,0,0,0,0,0,0,0,0,0,90,
scooby_state_446791|53|1 90,0,0,0,0,0,0,0,0,0,0,0,0,0,0,90,
scooby_state_4465e9|3|1 90,0,0,0,0,0,0,0,0,0,0,0,0,0,0,90,
scooby_state_446907|13|1 90,0,0,0,0,0,0,0,0,0,0,0,0,0,0,90,
scooby_state_4465e9|2|1 90,0,0,0,0,0,0,0,0,0,0,0,0,0,0,90,
scooby_state_446626|43|1 90,0,0,0,0,0,0,0,0,0,0,0,0,0,0,90,
scooby_state_446791|51|1 89,0,0,0,0,0,0,0,0,0,0,0,1,0,0,90,
scooby_state_446626|51|1 90,0,0,0,0,0,0,0,0,0,0,0,0,0,0,90,
scooby_state_446626|27|1 90,0,0,0,0,0,0,0,0,0,0,0,0,0,0,90,
scooby_state_446791|37|1 89,0,0,0,0,0,0,0,1,0,0,0,0,0,0,90,
scooby_state_446791|14|1 90,0,0,0,0,0,0,0,0,0,0,0,0,0,0,90,
scooby_state_4465e9|25|1 90,0,0,0,0,0,0,0,0,0,0,0,0,0,0,90,
scooby_state_4465e9|55|1 89,0,0,0,0,0,0,0,0,0,0,1,0,0,0,90,
scooby_state_446791|5|1 90,0,0,0,0,0,0,0,0,0,0,0,0,0,0,90,
scooby_state_4465e9|5|1 90,0,0,0,0,0,0,0,0,0,0,0,0,0,0,90,
scooby_state_446907|43|1 90,0,0,0,0,0,0,0,0,0,0,0,0,0,0,90,
scooby_state_4465e9|51|1 90,0,0,0,0,0,0,0,0,0,0,0,0,0,0,90,
scooby_state_446907|49|1 90,0,0,0,0,0,0,0,0,0,0,0,0,0,0,90,
scooby_state_446791|48|1 90,0,0,0,0,0,0,0,0,0,0,0,0,0,0,90,
scooby_state_4465e9|34|1 89,0,0,0,0,0,0,0,1,0,0,0,0,0,0,90,
scooby_state_446791|25|1 90,0,0,0,0,0,0,0,0,0,0,0,0,0,0,90,
scooby_state_446907|14|1 89,0,0,0,0,0,1,0,0,0,0,0,0,0,0,90,
scooby_state_446626|14|1 90,0,0,0,0,0,0,0,0,0,0,0,0,0,0,90,
scooby_state_446791|26|1 89,0,0,0,0,0,0,1,0,0,0,0,0,0,0,90,
scooby_state_446907|38|1 90,0,0,0,0,0,0,0,0,0,0,0,0,0,0,90,
scooby_state_4465e9|18|1 90,0,0,0,0,0,0,0,0,0,0,0,0,0,0,90,
scooby_state_446626|50|1 90,0,0,0,0,0,0,0,0,0,0,0,0,0,0,90,
scooby_state_4465e9|26|1 90,0,0,0,0,0,0,0,0,0,0,0,0,0,0,90,
scooby_state_446907|6|1 90,0,0,0,0,0,0,0,0,0,0,0,0,0,0,90,
scooby_state_446791|45|1 90,0,0,0,0,0,0,0,0,0,0,0,0,0,0,90,
scooby_state_446626|26|1 90,0,0,0,0,0,0,0,0,0,0,0,0,0,0,90,
scooby_state_4465e9|8|1 90,0,0,0,0,0,0,0,0,0,0,0,0,0,0,90,
scooby_state_446907|47|1 90,0,0,0,0,0,0,0,0,0,0,0,0,0,0,90,
scooby_state_446907|26|1 90,0,0,0,0,0,0,0,0,0,0,0,0,0,0,90,
scooby_state_446791|33|1 89,0,0,1,0,0,0,0,0,0,0,0,0,0,0,90,
scooby_state_446626|18|1 89,0,0,0,0,0,0,0,0,1,0,0,0,0,0,90,
scooby_state_446626|10|1 89,0,0,0,0,0,0,0,0,1,0,0,0,0,0,90,
scooby_state_4465e9|53|1 90,0,0,0,0,0,0,0,0,0,0,0,0,0,0,90,
scooby_state_446626|49|1 90,0,0,0,0,0,0,0,0,0,0,0,0,0,0,90,
scooby_state_446626|22|1 90,0,0,0,0,0,0,0,0,0,0,0,0,0,0,90,
scooby_state_446907|18|1 90,0,0,0,0,0,0,0,0,0,0,0,0,0,0,90,
scooby_state_446626|37|1 90,0,0,0,0,0,0,0,0,0,0,0,0,0,0,90,
scooby_state_4465e9|4|1 90,0,0,0,0,0,0,0,0,0,0,0,0,0,0,90,
scooby_state_446626|25|1 90,0,0,0,0,0,0,0,0,0,0,0,0,0,0,90,
scooby_state_446907|17|1 90,0,0,0,0,0,0,0,0,0,0,0,0,0,0,90,
scooby_state_446907|25|1 89,0,0,0,0,1,0,0,0,0,0,0,0,0,0,90,
scooby_state_446907|24|1 90,0,0,0,0,0,0,0,0,0,0,0,0,0,0,90,
scooby_state_446626|28|1 90,0,0,0,0,0,0,0,0,0,0,0,0,0,0,90,
scooby_state_446791|38|1 90,0,0,0,0,0,0,0,0,0,0,0,0,0,0,90,
scooby_state_446626|15|1 90,0,0,0,0,0,0,0,0,0,0,0,0,0,0,90,
scooby_state_446791|35|1 89,0,0,0,0,0,0,0,0,0,1,0,0,0,0,90,
scooby_state_4465e9|52|1 90,0,0,0,0,0,0,0,0,0,0,0,0,0,0,90,
scooby_state_446791|8|1 90,0,0,0,0,0,0,0,0,0,0,0,0,0,0,90,
scooby_state_446907|34|1 89,0,0,0,0,0,0,0,0,0,0,0,0,1,0,90,
scooby_state_446791|32|1 90,0,0,0,0,0,0,0,0,0,0,0,0,0,0,90,
scooby_state_446907|10|1 90,0,0,0,0,0,0,0,0,0,0,0,0,0,0,90,
scooby_state_446791|13|1 90,0,0,0,0,0,0,0,0,0,0,0,0,0,0,90,
scooby_state_4465e9|13|1 90,0,0,0,0,0,0,0,0,0,0,0,0,0,0,90,
scooby_state_446907|11|1 89,0,0,0,0,0,0,0,0,0,1,0,0,0,0,90,
scooby_state_446907|61|1 90,0,0,0,0,0,0,0,0,0,0,0,0,0,0,90,
scooby_state_446791|1|1 90,0,0,0,0,0,0,0,0,0,0,0,0,0,0,90,
scooby_state_4465e9|38|1 90,0,0,0,0,0,0,0,0,0,0,0,0,0,0,90,
scooby_state_4465e9|15|1 90,0,0,0,0,0,0,0,0,0,0,0,0,0,0,90,
scooby_state_446791|34|1 90,0,0,0,0,0,0,0,0,0,0,0,0,0,0,90,
scooby_state_446626|13|1 90,0,0,0,0,0,0,0,0,0,0,0,0,0,0,90,
scooby_state_446907|22|1 90,0,0,0,0,0,0,0,0,0,0,0,0,0,0,90,
scooby_state_4465e9|14|1 90,0,0,0,0,0,0,0,0,0,0,0,0,0,0,90,
scooby_state_4465e9|1|1 90,0,0,0,0,0,0,0,0,0,0,0,0,0,0,90,
scooby_state_446626|46|1 90,0,0,0,0,0,0,0,0,0,0,0,0,0,0,90,
scooby_state_446907|46|1 90,0,0,0,0,0,0,0,0,0,0,0,0,0,0,90,
scooby_state_446626|17|1 90,0,0,0,0,0,0,0,0,0,0,0,0,0,0,90,
scooby_state_446907|63|1 90,0,0,0,0,0,0,0,0,0,0,0,0,0,0,90,
scooby_state_446791|15|1 90,0,0,0,0,0,0,0,0,0,0,0,0,0,0,90,
scooby_state_446907|35|1 89,0,0,0,0,0,0,0,0,1,0,0,0,0,0,90,
scooby_state_446626|38|1 90,0,0,0,0,0,0,0,0,0,0,0,0,0,0,90,
scooby_state_446791|57|1 90,0,0,0,0,0,0,0,0,0,0,0,0,0,0,90,
scooby_state_4465e9|6|1 90,0,0,0,0,0,0,0,0,0,0,0,0,0,0,90,
scooby_state_4465e9|33|1 90,0,0,0,0,0,0,0,0,0,0,0,0,0,0,90,
scooby_state_446791|52|1 90,0,0,0,0,0,0,0,0,0,0,0,0,0,0,90,
scooby_state_446626|34|1 90,0,0,0,0,0,0,0,0,0,0,0,0,0,0,90,
scooby_state_446626|44|1 89,0,0,0,0,0,0,0,0,0,0,0,0,0,0,89,
scooby_state_4465e9|54|1 89,0,0,0,0,0,0,0,0,0,0,0,0,0,0,89,
scooby_state_446791|58|1 89,0,0,0,0,0,0,0,0,0,0,0,0,0,0,89,
scooby_state_446907|1|1 89,0,0,0,0,0,0,0,0,0,0,0,0,0,0,89,
scooby_state_446791|27|1 89,0,0,0,0,0,0,0,0,0,0,0,0,0,0,89,
scooby_state_446907|16|1 89,0,0,0,0,0,0,0,0,0,0,0,0,0,0,89,
scooby_state_446907|42|1 88,0,0,0,0,0,0,0,0,0,0,1,0,0,0,89,
scooby_state_446907|62|1 89,0,0,0,0,0,0,0,0,0,0,0,0,0,0,89,
scooby_state_446791|29|1 89,0,0,0,0,0,0,0,0,0,0,0,0,0,0,89,
scooby_state_446791|56|1 89,0,0,0,0,0,0,0,0,0,0,0,0,0,0,89,
scooby_state_446626|42|1 89,0,0,0,0,0,0,0,0,0,0,0,0,0,0,89,
scooby_state_446626|16|1 89,0,0,0,0,0,0,0,0,0,0,0,0,0,0,89,
scooby_state_446907|45|1 89,0,0,0,0,0,0,0,0,0,0,0,0,0,0,89,
scooby_state_4465e9|49|1 89,0,0,0,0,0,0,0,0,0,0,0,0,0,0,89,
scooby_state_4465e9|58|1 89,0,0,0,0,0,0,0,0,0,0,0,0,0,0,89,
scooby_state_446791|47|1 89,0,0,0,0,0,0,0,0,0,0,0,0,0,0,89,
scooby_state_446791|54|1 88,0,1,0,0,0,0,0,0,0,0,0,0,0,0,89,
scooby_state_4465e9|27|1 89,0,0,0,0,0,0,0,0,0,0,0,0,0,0,89,
scooby_state_446791|9|1 89,0,0,0,0,0,0,0,0,0,0,0,0,0,0,89,
scooby_state_4465e9|10|1 89,0,0,0,0,0,0,0,0,0,0,0,0,0,0,89,
scooby_state_446907|39|1 89,0,0,0,0,0,0,0,0,0,0,0,0,0,0,89,
scooby_state_446791|12|1 89,0,0,0,0,0,0,0,0,0,0,0,0,0,0,89,
scooby_state_4465e9|12|1 89,0,0,0,0,0,0,0,0,0,0,0,0,0,0,89,
scooby_state_4465e9|11|1 89,0,0,0,0,0,0,0,0,0,0,0,0,0,0,89,
scooby_state_446626|59|1 89,0,0,0,0,0,0,0,0,0,0,0,0,0,0,89,
scooby_state_4465e9|31|1 88,0,0,0,0,0,0,0,0,0,0,0,0,0,1,89,
scooby_state_446907|4|1 89,0,0,0,0,0,0,0,0,0,0,0,0,0,0,89,
scooby_state_446907|2|1 89,0,0,0,0,0,0,0,0,0,0,0,0,0,0,89,
scooby_state_446791|11|1 89,0,0,0,0,0,0,0,0,0,0,0,0,0,0,89,
scooby_state_446626|45|1 89,0,0,0,0,0,0,0,0,0,0,0,0,0,0,89,
scooby_state_4465e9|7|1 89,0,0,0,0,0,0,0,0,0,0,0,0,0,0,89,
scooby_state_446791|10|1 89,0,0,0,0,0,0,0,0,0,0,0,0,0,0,89,
scooby_state_446907|48|1 88,0,0,0,0,0,0,0,1,0,0,0,0,0,0,89,
scooby_state_4465e9|9|1 89,0,0,0,0,0,0,0,0,0,0,0,0,0,0,89,
scooby_state_446626|20|1 89,0,0,0,0,0,0,0,0,0,0,0,0,0,0,89,
scooby_state_4465e9|29|1 89,0,0,0,0,0,0,0,0,0,0,0,0,0,0,89,
scooby_state_446626|48|1 89,0,0,0,0,0,0,0,0,0,0,0,0,0,0,89,
scooby_state_446907|59|1 89,0,0,0,0,0,0,0,0,0,0,0,0,0,0,89,
scooby_state_446907|20|1 89,0,0,0,0,0,0,0,0,0,0,0,0,0,0,89,
scooby_state_446907|37|1 89,0,0,0,0,0,0,0,0,0,0,0,0,0,0,89,
scooby_state_446907|41|1 88,0,0,0,1,0,0,0,0,0,0,0,0,0,0,89,
scooby_state_446626|4|1 89,0,0,0,0,0,0,0,0,0,0,0,0,0,0,89,
scooby_state_446791|7|1 88,0,0,0,0,0,0,0,0,0,0,0,0,1,0,89,
scooby_state_446626|60|1 88,0,0,0,0,1,0,0,0,0,0,0,0,0,0,89,
scooby_state_446907|44|1 89,0,0,0,0,0,0,0,0,0,0,0,0,0,0,89,
scooby_state_446907|40|1 89,0,0,0,0,0,0,0,0,0,0,0,0,0,0,89,
scooby_state_446791|49|1 89,0,0,0,0,0,0,0,0,0,0,0,0,0,0,89,
scooby_state_446626|41|1 89,0,0,0,0,0,0,0,0,0,0,0,0,0,0,89,
scooby_state_4465e9|56|1 89,0,0,0,0,0,0,0,0,0,0,0,0,0,0,89,
scooby_state_446907|51|1 88,0,0,0,0,0,0,0,0,1,0,0,0,0,0,89,
scooby_state_446626|1|1 89,0,0,0,0,0,0,0,0,0,0,0,0,0,0,89,
scooby_state_446626|3|1 89,0,0,0,0,0,0,0,0,0,0,0,0,0,0,89,
scooby_state_446907|60|1 88,0,0,0,0,0,0,0,0,0,0,0,0,1,0,89,
scooby_state_446626|40|1 89,0,0,0,0,0,0,0,0,0,0,0,0,0,0,89,
scooby_state_446626|5|1 89,0,0,0,0,0,0,0,0,0,0,0,0,0,0,89,
scooby_state_446626|23|1 89,0,0,0,0,0,0,0,0,0,0,0,0,0,0,89,
scooby_state_446907|5|1 89,0,0,0,0,0,0,0,0,0,0,0,0,0,0,89,
scooby_state_446626|19|1 88,0,0,0,0,1,0,0,0,0,0,0,0,0,0,89,
scooby_state_446626|62|1 89,0,0,0,0,0,0,0,0,0,0,0,0,0,0,89,
scooby_state_4465e9|28|1 89,0,0,0,0,0,0,0,0,0,0,0,0,0,0,89,
scooby_state_446791|28|1 89,0,0,0,0,0,0,0,0,0,0,0,0,0,0,89,
scooby_state_446626|21|1 89,0,0,0,0,0,0,0,0,0,0,0,0,0,0,89,
scooby_state_446626|39|1 89,0,0,0,0,0,0,0,0,0,0,0,0,0,0,89,
scooby_state_446626|2|1 89,0,0,0,0,0,0,0,0,0,0,0,0,0,0,89,
scooby_state_446907|3|1 89,0,0,0,0,0,0,0,0,0,0,0,0,0,0,89,
scooby_state_446791|31|1 89,0,0,0,0,0,0,0,0,0,0,0,0,0,0,89,
scooby_state_4465e9|47|1 89,0,0,0,0,0,0,0,0,0,0,0,0,0,0,89,
scooby_state_446907|21|1 89,0,0,0,0,0,0,0,0,0,0,0,0,0,0,89,
scooby_state_446907|23|1 89,0,0,0,0,0,0,0,0,0,0,0,0,0,0,89,
scooby_state_446907|19|1 89,0,0,0,0,0,0,0,0,0,0,0,0,0,0,89,
scooby_state_446791|36|1 88,0,0,0,0,0,0,0,0,0,0,0,0,0,0,88,
scooby_state_446907|58|1 88,0,0,0,0,0,0,0,0,0,0,0,0,0,0,88,
scooby_state_4465e9|36|1 88,0,0,0,0,0,0,0,0,0,0,0,0,0,0,88,
scooby_state_446626|58|1 87,0,0,0,0,0,0,0,0,1,0,0,0,0,0,88,
scooby_state_44684c|63|1 83,0,0,0,0,0,0,0,0,0,0,0,0,0,0,83,
scooby_state_4469ae|39|1 83,0,0,0,0,0,0,0,0,0,0,0,0,0,0,83,
scooby_state_4466d9|21|1 83,0,0,0,0,0,0,0,0,0,0,0,0,0,0,83,
scooby_state_4469ae|10|1 83,0,0,0,0,0,0,0,0,0,0,0,0,0,0,83,
scooby_state_44684c|10|1 83,0,0,0,0,0,0,0,0,0,0,0,0,0,0,83,
scooby_state_44684c|57|1 83,0,0,0,0,0,0,0,0,0,0,0,0,0,0,83,
scooby_state_44684c|39|1 83,0,0,0,0,0,0,0,0,0,0,0,0,0,0,83,
scooby_state_4466d9|15|1 83,0,0,0,0,0,0,0,0,0,0,0,0,0,0,83,
scooby_state_4469ae|48|1 82,0,0,0,0,0,0,0,0,1,0,0,0,0,0,83,
scooby_state_4469ae|15|1 83,0,0,0,0,0,0,0,0,0,0,0,0,0,0,83,
scooby_state_4466d9|30|1 83,0,0,0,0,0,0,0,0,0,0,0,0,0,0,83,
scooby_state_4466d9|32|1 83,0,0,0,0,0,0,0,0,0,0,0,0,0,0,83,
scooby_state_4466d9|39|1 83,0,0,0,0,0,0,0,0,0,0,0,0,0,0,83,
scooby_state_4466d9|57|1 83,0,0,0,0,0,0,0,0,0,0,0,0,0,0,83,
scooby_state_4469ae|57|1 82,0,0,0,1,0,0,0,0,0,0,0,0,0,0,83,
scooby_state_4469ae|4|1 83,0,0,0,0,0,0,0,0,0,0,0,0,0,0,83,
scooby_state_4466d9|10|1 83,0,0,0,0,0,0,0,0,0,0,0,0,0,0,83,
scooby_state_4466d9|61|1 83,0,0,0,0,0,0,0,0,0,0,0,0,0,0,83,
scooby_state_44684c|1|1 81,0,0,0,1,0,0,1,0,0,0,0,0,0,0,83,
scooby_state_4469ae|43|1 83,0,0,0,0,0,0,0,0,0,0,0,0,0,0,83,
scooby_state_44684c|8|1 83,0,0,0,0,0,0,0,0,0,0,0,0,0,0,83,
scooby_state_44684c|26|1 83,0,0,0,0,0,0,0,0,0,0,0,0,0,0,83,
scooby_state_4466d9|59|1 83,0,0,0,0,0,0,0,0,0,0,0,0,0,0,83,
scooby_state_44684c|50|1 83,0,0,0,0,0,0,0,0,0,0,0,0,0,0,83,
scooby_state_44684c|54|1 83,0,0,0,0,0,0,0,0,0,0,0,0,0,0,83,
scooby_state_4466d9|8|1 82,0,0,1,0,0,0,0,0,0,0,0,0,0,0,83,
scooby_state_4469ae|54|1 83,0,0,0,0,0,0,0,0,0,0,0,0,0,0,83,
scooby_state_4469ae|8|1 83,0,0,0,0,0,0,0,0,0,0,0,0,0,0,83,
scooby_state_4469ae|37|1 83,0,0,0,0,0,0,0,0,0,0,0,0,0,0,83,
scooby_state_4469ae|30|1 83,0,0,0,0,0,0,0,0,0,0,0,0,0,0,83,
scooby_state_44684c|43|1 83,0,0,0,0,0,0,0,0,0,0,0,0,0,0,83,
scooby_state_4466d9|37|1 83,0,0,0,0,0,0,0,0,0,0,0,0,0,0,83,
scooby_state_4466d9|54|1 82,0,0,0,0,0,0,1,0,0,0,0,0,0,0,83,
scooby_state_4466d9|50|1 83,0,0,0,0,0,0,0,0,0,0,0,0,0,0,83,
scooby_state_4466d9|19|1 83,0,0,0,0,0,0,0,0,0,0,0,0,0,0,83,
scooby_state_4466d9|48|1 83,0,0,0,0,0,0,0,0,0,0,0,0,0,0,83,
scooby_state_4469ae|1|1 83,0,0,0,0,0,0,0,0,0,0,0,0,0,0,83,
scooby_state_4466d9|43|1 83,0,0,0,0,0,0,0,0,0,0,0,0,0,0,83,
scooby_state_4469ae|21|1 83,0,0,0,0,0,0,0,0,0,0,0,0,0,0,83,
scooby_state_44684c|61|1 83,0,0,0,0,0,0,0,0,0,0,0,0,0,0,83,
scooby_state_44684c|30|1 83,0,0,0,0,0,0,0,0,0,0,0,0,0,0,83,
scooby_state_44684c|15|1 83,0,0,0,0,0,0,0,0,0,0,0,0,0,0,83,
scooby_state_44684c|19|1 83,0,0,0,0,0,0,0,0,0,0,0,0,0,0,83,
scooby_state_4469ae|63|1 83,0,0,0,0,0,0,0,0,0,0,0,0,0,0,83,
scooby_state_44684c|32|1 83,0,0,0,0,0,0,0,0,0,0,0,0,0,0,83,
scooby_state_4469ae|32|1 83,0,0,0,0,0,0,0,0,0,0,0,0,0,0,83,
scooby_state_44684c|37|1 83,0,0,0,0,0,0,0,0,0,0,0,0,0,0,83,
scooby_state_4469ae|26|1 83,0,0,0,0,0,0,0,0,0,0,0,0,0,0,83,
scooby_state_44684c|21|1 83,0,0,0,0,0,0,0,0,0,0,0,0,0,0,83,
scooby_state_4469ae|50|1 83,0,0,0,0,0,0,0,0,0,0,0,0,0,0,83,
scooby_state_4469ae|28|1 83,0,0,0,0,0,0,0,0,0,0,0,0,0,0,83,
scooby_state_44684c|28|1 83,0,0,0,0,0,0,0,0,0,0,0,0,0,0,83,
scooby_state_4469ae|61|1 83,0,0,0,0,0,0,0,0,0,0,0,0,0,0,83,
scooby_state_4466d9|28|1 83,0,0,0,0,0,0,0,0,0,0,0,0,0,0,83,
scooby_state_44684c|59|1 83,0,0,0,0,0,0,0,0,0,0,0,0,0,0,83,
scooby_state_4469ae|59|1 83,0,0,0,0,0,0,0,0,0,0,0,0,0,0,83,
scooby_state_4469ae|19|1 83,0,0,0,0,0,0,0,0,0,0,0,0,0,0,83,
scooby_state_4466d9|26|1 83,0,0,0,0,0,0,0,0,0,0,0,0,0,0,83,
scooby_state_4466d9|63|1 83,0,0,0,0,0,0,0,0,0,0,0,0,0,0,83,
scooby_state_44684c|4|1 83,0,0,0,0,0,0,0,0,0,0,0,0,0,0,83,
scooby_state_4466d9|1|1 83,0,0,0,0,0,0,0,0,0,0,0,0,0,0,83,
scooby_state_4466d9|4|1 83,0,0,0,0,0,0,0,0,0,0,0,0,0,0,83,
scooby_state_44684c|48|1 82,0,0,1,0,0,0,0,0,0,0,0,0,0,0,83,
scooby_state_4469ae|2|1 82,0,0,0,0,0,0,0,0,0,0,0,0,0,0,82,
scooby_state_4469ae|55|1 81,0,0,0,0,0,1,0,0,0,0,0,0,0,0,82,
scooby_state_4469ae|22|1 82,0,0,0,0,0,0,0,0,0,0,0,0,0,0,82,
scooby_state_44684c|23|1 82,0,0,0,0,0,0,0,0,0,0,0,0,0,0,82,
scooby_state_44684c|55|1 82,0,0,0,0,0,0,0,0,0,0,0,0,0,0,82,
scooby_state_4466d9|55|1 82,0,0,0,0,0,0,0,0,0,0,0,0,0,0,82,
scooby_state_44684c|22|1 82,0,0,0,0,0,0,0,0,0,0,0,0,0,0,82,
scooby_state_4469ae|13|1 82,0,0,0,0,0,0,0,0,0,0,0,0,0,0,82,
scooby_state_4469ae|35|1 82,0,0,0,0,0,0,0,0,0,0,0,0,0,0,82,
scooby_state_44684c|34|1 81,0,0,0,0,0,1,0,0,0,0,0,0,0,0,82,
scooby_state_4469ae|17|1 81,0,0,0,0,0,0,0,1,0,0,0,0,0,0,82,
scooby_state_4466d9|36|1 82,0,0,0,0,0,0,0,0,0,0,0,0,0,0,82,
scooby_state_4469ae|33|1 82,0,0,0,0,0,0,0,0,0,0,0,0,0,0,82,
scooby_state_44684c|17|1 82,0,0,0,0,0,0,0,0,0,0,0,0,0,0,82,
scooby_state_4466d9|22|1 82,0,0,0,0,0,0,0,0,0,0,0,0,0,0,82,
scooby_state_4466d9|25|1 81,0,0,0,0,0,0,0,0,0,0,1,0,0,0,82,
scooby_state_4466d9|24|1 82,0,0,0,0,0,0,0,0,0,0,0,0,0,0,82,
scooby_state_44684c|13|1 82,0,0,0,0,0,0,0,0,0,0,0,0,0,0,82,
scooby_state_4469ae|3|1 82,0,0,0,0,0,0,0,0,0,0,0,0,0,0,82,
scooby_state_4469ae|12|1 82,0,0,0,0,0,0,0,0,0,0,0,0,0,0,82,
scooby_state_4466d9|35|1 82,0,0,0,0,0,0,0,0,0,0,0,0,0,0,82,
scooby_state_44684c|41|1 82,0,0,0,0,0,0,0,0,0,0,0,0,0,0,82,
scooby_state_44684c|6|1 82,0,0,0,0,0,0,0,0,0,0,0,0,0,0,82,
scooby_state_4469ae|45|1 81,0,0,0,0,1,0,0,0,0,0,0,0,0,0,82,
scooby_state_4466d9|23|1 82,0,0,0,0,0,0,0,0,0,0,0,0,0,0,82,
scooby_state_4466d9|56|1 82,0,0,0,0,0,0,0,0,0,0,0,0,0,0,82,
scooby_state_4469ae|23|1 81,0,1,0,0,0,0,0,0,0,0,0,0,0,0,82,
scooby_state_4466d9|14|1 81,0,0,1,0,0,0,0,0,0,0,0,0,0,0,82,
scooby_state_44684c|46|1 82,0,0,0,0,0,0,0,0,0,0,0,0,0,0,82,
scooby_state_44684c|25|1 82,0,0,0,0,0,0,0,0,0,0,0,0,0,0,82,
scooby_state_4466d9|6|1 82,0,0,0,0,0,0,0,0,0,0,0,0,0,0,82,
scooby_state_44684c|45|1 82,0,0,0,0,0,0,0,0,0,0,0,0,0,0,82,
scooby_state_4466d9|41|1 82,0,0,0,0,0,0,0,0,0,0,0,0,0,0,82,
scooby_state_4469ae|14|1 81,0,0,0,0,0,0,1,0,0,0,0,0,0,0,82,
scooby_state_4466d9|52|1 82,0,0,0,0,0,0,0,0,0,0,0,0,0,0,82,
scooby_state_4469ae|36|1 82,0,0,0,0,0,0,0,0,0,0,0,0,0,0,82,
scooby_state_4466d9|44|1 82,0,0,0,0,0,0,0,0,0,0,0,0,0,0,82,
scooby_state_44684c|56|1 82,0,0,0,0,0,0,0,0,0,0,0,0,0,0,82,
scooby_state_4469ae|6|1 82,0,0,0,0,0,0,0,0,0,0,0,0,0,0,82,
scooby_state_44684c|2|1 82,0,0,0,0,0,0,0,0,0,0,0,0,0,0,82,
scooby_state_4469ae|34|1 82,0,0,0,0,0,0,0,0,0,0,0,0,0,0,82,
scooby_state_4466d9|3|1 82,0,0,0,0,0,0,0,0,0,0,0,0,0,0,82,
scooby_state_4466d9|2|1 82,0,0,0,0,0,0,0,0,0,0,0,0,0,0,82,
scooby_state_4469ae|46|1 82,0,0,0,0,0,0,0,0,0,0,0,0,0,0,82,
scooby_state_4469ae|41|1 82,0,0,0,0,0,0,0,0,0,0,0,0,0,0,82,
scooby_state_44684c|35|1 82,0,0,0,0,0,0,0,0,0,0,0,0,0,0,82,
scooby_state_44684c|33|1 81,0,0,0,0,0,0,0,0,0,0,1,0,0,0,82,
scooby_state_4466d9|13|1 82,0,0,0,0,0,0,0,0,0,0,0,0,0,0,82,
scooby_state_4469ae|25|1 82,0,0,0,0,0,0,0,0,0,0,0,0,0,0,82,
scooby_state_4466d9|46|1 82,0,0,0,0,0,0,0,0,0,0,0,0,0,0,82,
scooby_state_4469ae|24|1 82,0,0,0,0,0,0,0,0,0,0,0,0,0,0,82,
scooby_state_4466d9|33|1 82,0,0,0,0,0,0,0,0,0,0,0,0,0,0,82,
scooby_state_44684c|36|1 82,0,0,0,0,0,0,0,0,0,0,0,0,0,0,82,
scooby_state_44684c|12|1 82,0,0,0,0,0,0,0,0,0,0,0,0,0,0,82,
scooby_state_44684c|14|1 82,0,0,0,0,0,0,0,0,0,0,0,0,0,0,82,
scooby_state_44684c|52|1 82,0,0,0,0,0,0,0,0,0,0,0,0,0,0,82,
scooby_state_4469ae|56|1 82,0,0,0,0,0,0,0,0,0,0,0,0,0,0,82,
scooby_state_44684c|3|1 82,0,0,0,0,0,0,0,0,0,0,0,0,0,0,82,
scooby_state_44684c|24|1 82,0,0,0,0,0,0,0,0,0,0,0,0,0,0,82,
scooby_state_44684c|44|1 82,0,0,0,0,0,0,0,0,0,0,0,0,0,0,82,
scooby_state_4469ae|52|1 82,0,0,0,0,0,0,0,0,0,0,0,0,0,0,82,
scooby_state_4466d9|45|1 82,0,0,0,0,0,0,0,0,0,0,0,0,0,0,82,
scooby_state_4466d9|34|1 82,0,0,0,0,0,0,0,0,0,0,0,0,0,0,82,
scooby_state_4469ae|44|1 82,0,0,0,0,0,0,0,0,0,0,0,0,0,0,82,
scooby_state_4466d9|12|1 82,0,0,0,0,0,0,0,0,0,0,0,0,0,0,82,
scooby_state_4466d9|17|1 82,0,0,0,0,0,0,0,0,0,0,0,0,0,0,82,
scooby_state_44684c|11|1 81,0,0,0,0,0,0,0,0,0,0,0,0,0,0,81,
scooby_state_4469ae|49|1 81,0,0,0,0,0,0,0,0,0,0,0,0,0,0,81,
scooby_state_4466d9|53|1 81,0,0,0,0,0,0,0,0,0,0,0,0,0,0,81,
scooby_state_44684c|49|1 81,0,0,0,0,0,0,0,0,0,0,0,0,0,0,81,
scooby_state_4469ae|7|1 81,0,0,0,0,0,0,0,0,0,0,0,0,0,0,81,
scooby_state_4469ae|58|1 81,0,0,0,0,0,0,0,0,0,0,0,0,0,0,81,
scooby_state_4466d9|11|1 81,0,0,0,0,0,0,0,0,0,0,0,0,0,0,81,
scooby_state_4466d9|20|1 81,0,0,0,0,0,0,0,0,0,0,0,0,0,0,81,
scooby_state_4469ae|42|1 80,0,0,0,0,0,0,0,1,0,0,0,0,0,0,81,
scooby_state_44684c|9|1 81,0,0,0,0,0,0,0,0,0,0,0,0,0,0,81,
scooby_state_4469ae|9|1 81,0,0,0,0,0,0,0,0,0,0,0,0,0,0,81,
scooby_state_4466d9|62|1 81,0,0,0,0,0,0,0,0,0,0,0,0,0,0,81,
scooby_state_4466d9|58|1 81,0,0,0,0,0,0,0,0,0,0,0,0,0,0,81,
scooby_state_44684c|62|1 81,0,0,0,0,0,0,0,0,0,0,0,0,0,0,81,
scooby_state_44684c|20|1 81,0,0,0,0,0,0,0,0,0,0,0,0,0,0,81,
scooby_state_4469ae|62|1 81,0,0,0,0,0,0,0,0,0,0,0,0,0,0,81,
scooby_state_4466d9|16|1 80,0,0,0,0,0,0,0,0,0,1,0,0,0,0,81,
scooby_state_44684c|16|1 81,0,0,0,0,0,0,0,0,0,0,0,0,0,0,81,
scooby_state_4466d9|9|1 81,0,0,0,0,0,0,0,0,0,0,0,0,0,0,81,
scooby_state_44684c|38|1 81,0,0,0,0,0,0,0,0,0,0,0,0,0,0,81,
scooby_state_44684c|47|1 81,0,0,0,0,0,0,0,0,0,0,0,0,0,0,81,
scooby_state_4466d9|51|1 81,0,0,0,0,0,0,0,0,0,0,0,0,0,0,81,
scooby_state_44684c|31|1 81,0,0,0,0,0,0,0,0,0,0,0,0,0,0,81,
scooby_state_4466d9|7|1 81,0,0,0,0,0,0,0,0,0,0,0,0,0,0,81,
scooby_state_44684c|51|1 81,0,0,0,0,0,0,0,0,0,0,0,0,0,0,81,
scooby_state_4469ae|47|1 81,0,0,0,0,0,0,0,0,0,0,0,0,0,0,81,
scooby_state_44684c|5|1 80,0,0,0,0,0,0,0,0,0,1,0,0,0,0,81,
scooby_state_4466d9|27|1 81,0,0,0,0,0,0,0,0,0,0,0,0,0,0,81,
scooby_state_44684c|27|1 80,0,0,0,1,0,0,0,0,0,0,0,0,0,0,81,
scooby_state_4469ae|51|1 80,0,0,0,0,1,0,0,0,0,0,0,0,0,0,81,
scooby_state_4466d9|60|1 81,0,0,0,0,0,0,0,0,0,0,0,0,0,0,81,
scooby_state_4469ae|60|1 81,0,0,0,0,0,0,0,0,0,0,0,0,0,0,81,
scooby_state_4466d9|38|1 81,0,0,0,0,0,0,0,0,0,0,0,0,0,0,81,
scooby_state_4469ae|20|1 81,0,0,0,0,0,0,0,0,0,0,0,0,0,0,81,
scooby_state_4469ae|38|1 81,0,0,0,0,0,0,0,0,0,0,0,0,0,0,81,
scooby_state_4469ae|11|1 81,0,0,0,0,0,0,0,0,0,0,0,0,0,0,81,
scooby_state_44684c|60|1 81,0,0,0,0,0,0,0,0,0,0,0,0,0,0,81,
scooby_state_4466d9|31|1 80,0,0,0,0,0,0,0,0,1,0,0,0,0,0,81,
scooby_state_4469ae|53|1 80,1,0,0,0,0,0,0,0,0,0,0,0,0,0,81,
scooby_state_44684c|53|1 81,0,0,0,0,0,0,0,0,0,0,0,0,0,0,81,
scooby_state_44684c|58|1 81,0,0,0,0,0,0,0,0,0,0,0,0,0,0,81,
scooby_state_44684c|7|1 81,0,0,0,0,0,0,0,0,0,0,0,0,0,0,81,
scooby_state_4469ae|16|1 80,0,0,0,0,1,0,0,0,0,0,0,0,0,0,81,
scooby_state_4469ae|31|1 81,0,0,0,0,0,0,0,0,0,0,0,0,0,0,81,
scooby_state_4466d9|47|1 81,0,0,0,0,0,0,0,0,0,0,0,0,0,0,81,
scooby_state_4466d9|42|1 81,0,0,0,0,0,0,0,0,0,0,0,0,0,0,81,
scooby_state_4469ae|27|1 81,0,0,0,0,0,0,0,0,0,0,0,0,0,0,81,
scooby_state_4469ae|5|1 81,0,0,0,0,0,0,0,0,0,0,0,0,0,0,81,
scooby_state_4466d9|5|1 81,0,0,0,0,0,0,0,0,0,0,0,0,0,0,81,
scooby_state_44684c|42|1 81,0,0,0,0,0,0,0,0,0,0,0,0,0,0,81,
scooby_state_4466d9|49|1 81,0,0,0,0,0,0,0,0,0,0,0,0,0,0,81,
scooby_state_4466d9|29|1 80,0,0,0,0,0,0,0,0,0,0,0,0,0,0,80,
scooby_state_44684c|40|1 80,0,0,0,0,0,0,0,0,0,0,0,0,0,0,80,
scooby_state_4469ae|40|1 80,0,0,0,0,0,0,0,0,0,0,0,0,0,0,80,
scooby_state_4466d9|40|1 80,0,0,0,0,0,0,0,0,0,0,0,0,0,0,80,
scooby_state_44684c|29|1 79,0,1,0,0,0,0,0,0,0,0,0,0,0,0,80,
scooby_state_4469ae|29|1 80,0,0,0,0,0,0,0,0,0,0,0,0,0,0,80,
scooby_state_4466d9|18|1 80,0,0,0,0,0,0,0,0,0,0,0,0,0,0,80,
scooby_state_4469ae|18|1 80,0,0,0,0,0,0,0,0,0,0,0,0,0,0,80,
scooby_state_44684c|18|1 80,0,0,0,0,0,0,0,0,0,0,0,0,0,0,80,
scooby_state_4469ae|1|0 68,0,0,0,0,0,0,0,0,0,0,0,0,0,0,68,
scooby_state_44684c|1|0 68,0,0,0,0,0,0,0,0,0,0,0,0,0,0,68,
scooby_state_4466d9|7|0 67,0,0,0,0,0,0,0,0,0,0,0,0,0,0,67,
scooby_state_4466d9|1|0 67,0,0,0,0,0,0,0,0,0,0,0,0,0,0,67,
scooby_state_44684c|3|0 67,0,0,0,0,0,0,0,0,0,0,0,0,0,0,67,
scooby_state_4469ae|36|28 67,0,0,0,0,0,0,0,0,0,0,0,0,0,0,67,
scooby_state_4469ae|20|0 67,0,0,0,0,0,0,0,0,0,0,0,0,0,0,67,
scooby_state_4469ae|18|0 67,0,0,0,0,0,0,0,0,0,0,0,0,0,0,67,
scooby_state_44684c|49|28 67,0,0,0,0,0,0,0,0,0,0,0,0,0,0,67,
scooby_state_4469ae|38|28 67,0,0,0,0,0,0,0,0,0,0,0,0,0,0,67,
scooby_state_4469ae|49|28 67,0,0,0,0,0,0,0,0,0,0,0,0,0,0,67,
scooby_state_4466d9|38|28 66,1,0,0,0,0,0,0,0,0,0,0,0,0,0,67,
scooby_state_4466d9|25|0 67,0,0,0,0,0,0,0,0,0,0,0,0,0,0,67,
scooby_state_4465e9|20|0 67,0,0,0,0,0,0,0,0,0,0,0,0,0,0,67,
scooby_state_4466d9|18|0 67,0,0,0,0,0,0,0,0,0,0,0,0,0,0,67,
scooby_state_4466d9|27|0 67,0,0,0,0,0,0,0,0,0,0,0,0,0,0,67,
scooby_state_44684c|36|28 67,0,0,0,0,0,0,0,0,0,0,0,0,0,0,67,
scooby_state_44684c|38|28 67,0,0,0,0,0,0,0,0,0,0,0,0,0,0,67,
scooby_state_44684c|7|0 67,0,0,0,0,0,0,0,0,0,0,0,0,0,0,67,
scooby_state_4469ae|29|28 67,0,0,0,0,0,0,0,0,0,0,0,0,0,0,67,
scooby_state_4466d9|3|0 66,0,0,0,0,0,0,0,0,0,1,0,0,0,0,67,
scooby_state_44684c|29|28 67,0,0,0,0,0,0,0,0,0,0,0,0,0,0,67,
scooby_state_4469ae|25|0 66,0,1,0,0,0,0,0,0,0,0,0,0,0,0,67,
scooby_state_4469ae|47|28 67,0,0,0,0,0,0,0,0,0,0,0,0,0,0,67,
scooby_state_4469ae|27|0 67,0,0,0,0,0,0,0,0,0,0,0,0,0,0,67,
scooby_state_4469ae|60|28 67,0,0,0,0,0,0,0,0,0,0,0,0,0,0,67,
scooby_state_4466d9|47|28 67,0,0,0,0,0,0,0,0,0,0,0,0,0,0,67,
scooby_state_4469ae|3|0 67,0,0,0,0,0,0,0,0,0,0,0,0,0,0,67,
scooby_state_4466d9|56|28 67,0,0,0,0,0,0,0,0,0,0,0,0,0,0,67,
scooby_state_44684c|56|28 67,0,0,0,0,0,0,0,0,0,0,0,0,0,0,67,
scooby_state_4466d9|60|28 67,0,0,0,0,0,0,0,0,0,0,0,0,0,0,67,
scooby_state_44684c|60|28 67,0,0,0,0,0,0,0,0,0,0,0,0,0,0,67,
scooby_state_4466d9|29|28 67,0,0,0,0,0,0,0,0,0,0,0,0,0,0,67,
scooby_state_4466d9|36|28 67,0,0,0,0,0,0,0,0,0,0,0,0,0,0,67,
scooby_state_4469ae|56|28 67,0,0,0,0,0,0,0,0,0,0,0,0,0,0,67,
scooby_state_446791|20|0 67,0,0,0,0,0,0,0,0,0,0,0,0,0,0,67,
scooby_state_4469ae|14|0 67,0,0,0,0,0,0,0,0,0,0,0,0,0,0,67,
scooby_state_44684c|58|28 67,0,0,0,0,0,0,0,0,0,0,0,0,0,0,67,
scooby_state_4469ae|7|0 67,0,0,0,0,0,0,0,0,0,0,0,0,0,0,67,
scooby_state_44684c|47|28 67,0,0,0,0,0,0,0,0,0,0,0,0,0,0,67,
scooby_state_446907|11|0 67,0,0,0,0,0,0,0,0,0,0,0,0,0,0,67,
scooby_state_44684c|14|0 67,0,0,0,0,0,0,0,0,0,0,0,0,0,0,67,
scooby_state_4466d9|14|0 67,0,0,0,0,0,0,0,0,0,0,0,0,0,0,67,
scooby_state_44684c|25|0 67,0,0,0,0,0,0,0,0,0,0,0,0,0,0,67,
scooby_state_4466d9|49|28 67,0,0,0,0,0,0,0,0,0,0,0,0,0,0,67,
scooby_state_446626|11|0 67,0,0,0,0,0,0,0,0,0,0,0,0,0,0,67,
scooby_state_44684c|27|0 67,0,0,0,0,0,0,0,0,0,0,0,0,0,0,67,
scooby_state_4466d9|58|28 67,0,0,0,0,0,0,0,0,0,0,0,0,0,0,67,
scooby_state_4469ae|58|28 67,0,0,0,0,0,0,0,0,0,0,0,0,0,0,67,
scooby_state_44684c|18|0 67,0,0,0,0,0,0,0,0,0,0,0,0,0,0,67,
scooby_state_4465e9|13|0 65,0,0,0,0,0,0,0,1,0,0,0,0,0,0,66,
scooby_state_44684c|12|0 66,0,0,0,0,0,0,0,0,0,0,0,0,0,0,66,
scooby_state_446907|21|0 65,0,0,0,0,0,0,0,0,0,0,1,0,0,0,66,
scooby_state_446791|13|0 66,0,0,0,0,0,0,0,0,0,0,0,0,0,0,66,
scooby_state_4465e9|27|0 66,0,0,0,0,0,0,0,0,0,0,0,0,0,0,66,
scooby_state_446626|1|0 66,0,0,0,0,0,0,0,0,0,0,0,0,0,0,66,
scooby_state_4465fb|11|0 66,0,0,0,0,0,0,0,0,0,0,0,0,0,0,66,
scooby_state_446626|43|28 66,0,0,0,0,0,0,0,0,0,0,0,0,0,0,66,
scooby_state_44684c|20|0 66,0,0,0,0,0,0,0,0,0,0,0,0,0,0,66,
scooby_state_4465e9|32|28 66,0,0,0,0,0,0,0,0,0,0,0,0,0,0,66,
scooby_state_446626|19|0 66,0,0,0,0,0,0,0,0,0,0,0,0,0,0,66,
scooby_state_4465e9|42|28 66,0,0,0,0,0,0,0,0,0,0,0,0,0,0,66,
scooby_state_4465e9|18|0 66,0,0,0,0,0,0,0,0,0,0,0,0,0,0,66,
scooby_state_4465e9|58|28 66,0,0,0,0,0,0,0,0,0,0,0,0,0,0,66,
scooby_state_446626|17|0 66,0,0,0,0,0,0,0,0,0,0,0,0,0,0,66,
scooby_state_446791|42|28 66,0,0,0,0,0,0,0,0,0,0,0,0,0,0,66,
scooby_state_446626|35|28 66,0,0,0,0,0,0,0,0,0,0,0,0,0,0,66,
scooby_state_4469ae|4|0 66,0,0,0,0,0,0,0,0,0,0,0,0,0,0,66,
scooby_state_446626|21|0 66,0,0,0,0,0,0,0,0,0,0,0,0,0,0,66,
scooby_state_44684c|45|28 66,0,0,0,0,0,0,0,0,0,0,0,0,0,0,66,
scooby_state_446626|23|0 66,0,0,0,0,0,0,0,0,0,0,0,0,0,0,66,
scooby_state_4469ae|62|28 66,0,0,0,0,0,0,0,0,0,0,0,0,0,0,66,
scooby_state_4466d9|43|28 66,0,0,0,0,0,0,0,0,0,0,0,0,0,0,66,
scooby_state_4465fb|23|0 66,0,0,0,0,0,0,0,0,0,0,0,0,0,0,66,
scooby_state_4465e9|60|28 66,0,0,0,0,0,0,0,0,0,0,0,0,0,0,66,
scooby_state_4466d9|5|0 65,0,0,0,0,0,0,0,0,0,1,0,0,0,0,66,
scooby_state_446626|5|0 66,0,0,0,0,0,0,0,0,0,0,0,0,0,0,66,
scooby_state_446626|7|0 66,0,0,0,0,0,0,0,0,0,0,0,0,0,0,66,
scooby_state_446907|35|28 66,0,0,0,0,0,0,0,0,0,0,0,0,0,0,66,
scooby_state_4466d9|62|28 66,0,0,0,0,0,0,0,0,0,0,0,0,0,0,66,
scooby_state_44684c|62|28 66,0,0,0,0,0,0,0,0,0,0,0,0,0,0,66,
scooby_state_44684c|34|28 65,0,0,0,1,0,0,0,0,0,0,0,0,0,0,66,
scooby_state_4465fb|7|0 66,0,0,0,0,0,0,0,0,0,0,0,0,0,0,66,
scooby_state_446791|2|0 66,0,0,0,0,0,0,0,0,0,0,0,0,0,0,66,
scooby_state_446791|34|28 65,0,0,0,0,1,0,0,0,0,0,0,0,0,0,66,
scooby_state_446626|6|0 66,0,0,0,0,0,0,0,0,0,0,0,0,0,0,66,
scooby_state_44684c|42|28 66,0,0,0,0,0,0,0,0,0,0,0,0,0,0,66,
scooby_state_446907|7|0 66,0,0,0,0,0,0,0,0,0,0,0,0,0,0,66,
scooby_state_446791|62|28 66,0,0,0,0,0,0,0,0,0,0,0,0,0,0,66,
scooby_state_4465e9|15|0 66,0,0,0,0,0,0,0,0,0,0,0,0,0,0,66,
scooby_state_446907|28|28 66,0,0,0,0,0,0,0,0,0,0,0,0,0,0,66,
scooby_state_4469ae|54|28 66,0,0,0,0,0,0,0,0,0,0,0,0,0,0,66,
scooby_state_446791|54|28 66,0,0,0,0,0,0,0,0,0,0,0,0,0,0,66,
scooby_state_4465fb|0|0 66,0,0,0,0,0,0,0,0,0,0,0,0,0,0,66,
scooby_state_446626|28|28 66,0,0,0,0,0,0,0,0,0,0,0,0,0,0,66,
scooby_state_4465e9|54|28 66,0,0,0,0,0,0,0,0,0,0,0,0,0,0,66,
scooby_state_446907|50|28 66,0,0,0,0,0,0,0,0,0,0,0,0,0,0,66,
scooby_state_4465e9|7|0 66,0,0,0,0,0,0,0,0,0,0,0,0,0,0,66,
scooby_state_4465fb|16|0 65,0,0,0,0,1,0,0,0,0,0,0,0,0,0,66,
scooby_state_446791|7|0 66,0,0,0,0,0,0,0,0,0,0,0,0,0,0,66,
scooby_state_4466d9|9|0 66,0,0,0,0,0,0,0,0,0,0,0,0,0,0,66,
scooby_state_44684c|9|0 66,0,0,0,0,0,0,0,0,0,0,0,0,0,0,66,
scooby_state_446907|16|0 66,0,0,0,0,0,0,0,0,0,0,0,0,0,0,66,
scooby_state_446907|26|0 66,0,0,0,0,0,0,0,0,0,0,0,0,0,0,66,
scooby_state_446791|41|28 65,0,0,0,0,0,0,0,1,0,0,0,0,0,0,66,
scooby_state_446626|16|0 66,0,0,0,0,0,0,0,0,0,0,0,0,0,0,66,
scooby_state_446791|45|28 66,0,0,0,0,0,0,0,0,0,0,0,0,0,0,66,
scooby_state_446907|45|28 66,0,0,0,0,0,0,0,0,0,0,0,0,0,0,66,
scooby_state_44684c|31|28 66,0,0,0,0,0,0,0,0,0,0,0,0,0,0,66,
scooby_state_446791|16|0 66,0,0,0,0,0,0,0,0,0,0,0,0,0,0,66,
scooby_state_4465e9|50|28 66,0,0,0,0,0,0,0,0,0,0,0,0,0,0,66,
scooby_state_4465fb|21|0 66,0,0,0,0,0,0,0,0,0,0,0,0,0,0,66,
scooby_state_446791|12|0 66,0,0,0,0,0,0,0,0,0,0,0,0,0,0,66,
scooby_state_4465e9|12|0 66,0,0,0,0,0,0,0,0,0,0,0,0,0,0,66,
scooby_state_4466d9|34|28 66,0,0,0,0,0,0,0,0,0,0,0,0,0,0,66,
scooby_state_446791|32|28 66,0,0,0,0,0,0,0,0,0,0,0,0,0,0,66,
scooby_state_446907|52|28 66,0,0,0,0,0,0,0,0,0,0,0,0,0,0,66,
scooby_state_4469ae|43|28 66,0,0,0,0,0,0,0,0,0,0,0,0,0,0,66,
scooby_state_446791|36|28 66,0,0,0,0,0,0,0,0,0,0,0,0,0,0,66,
scooby_state_446907|10|0 66,0,0,0,0,0,0,0,0,0,0,0,0,0,0,66,
scooby_state_4465fb|2|0 66,0,0,0,0,0,0,0,0,0,0,0,0,0,0,66,
scooby_state_446907|23|0 66,0,0,0,0,0,0,0,0,0,0,0,0,0,0,66,
scooby_state_4466d9|53|28 66,0,0,0,0,0,0,0,0,0,0,0,0,0,0,66,
scooby_state_4465e9|63|28 66,0,0,0,0,0,0,0,0,0,0,0,0,0,0,66,
scooby_state_446791|5|0 66,0,0,0,0,0,0,0,0,0,0,0,0,0,0,66,
scooby_state_44684c|5|0 66,0,0,0,0,0,0,0,0,0,0,0,0,0,0,66,
scooby_state_446907|43|28 66,0,0,0,0,0,0,0,0,0,0,0,0,0,0,66,
scooby_state_4465e9|45|28 66,0,0,0,0,0,0,0,0,0,0,0,0,0,0,66,
scooby_state_44684c|32|28 66,0,0,0,0,0,0,0,0,0,0,0,0,0,0,66,
scooby_state_4466d9|31|28 66,0,0,0,0,0,0,0,0,0,0,0,0,0,0,66,
scooby_state_4469ae|12|0 66,0,0,0,0,0,0,0,0,0,0,0,0,0,0,66,
scooby_state_44684c|53|28 66,0,0,0,0,0,0,0,0,0,0,0,0,0,0,66,
scooby_state_4465e9|34|28 66,0,0,0,0,0,0,0,0,0,0,0,0,0,0,66,
scooby_state_446907|8|0 66,0,0,0,0,0,0,0,0,0,0,0,0,0,0,66,
scooby_state_4469ae|5|0 66,0,0,0,0,0,0,0,0,0,0,0,0,0,0,66,
scooby_state_4465e9|51|28 66,0,0,0,0,0,0,0,0,0,0,0,0,0,0,66,
scooby_state_446907|24|0 66,0,0,0,0,0,0,0,0,0,0,0,0,0,0,66,
scooby_state_4465e9|5|0 66,0,0,0,0,0,0,0,0,0,0,0,0,0,0,66,
scooby_state_446791|51|28 66,0,0,0,0,0,0,0,0,0,0,0,0,0,0,66,
scooby_state_4469ae|9|0 66,0,0,0,0,0,0,0,0,0,0,0,0,0,0,66,
scooby_state_446791|63|28 65,0,0,0,0,0,0,1,0,0,0,0,0,0,0,66,
scooby_state_446791|61|28 66,0,0,0,0,0,0,0,0,0,0,0,0,0,0,66,
scooby_state_446907|62|28 66,0,0,0,0,0,0,0,0,0,0,0,0,0,0,66,
scooby_state_446907|3|0 65,0,1,0,0,0,0,0,0,0,0,0,0,0,0,66,
scooby_state_4466d9|20|0 66,0,0,0,0,0,0,0,0,0,0,0,0,0,0,66,
scooby_state_4465fb|3|0 66,0,0,0,0,0,0,0,0,0,0,0,0,0,0,66,
scooby_state_446626|45|28 66,0,0,0,0,0,0,0,0,0,0,0,0,0,0,66,
scooby_state_446907|6|0 66,0,0,0,0,0,0,0,0,0,0,0,0,0,0,66,
scooby_state_4465e9|62|28 65,0,0,0,0,0,1,0,0,0,0,0,0,0,0,66,
scooby_state_44684c|23|0 66,0,0,0,0,0,0,0,0,0,0,0,0,0,0,66,
scooby_state_4469ae|34|28 66,0,0,0,0,0,0,0,0,0,0,0,0,0,0,66,
scooby_state_4466d9|12|0 66,0,0,0,0,0,0,0,0,0,0,0,0,0,0,66,
scooby_state_4465e9|2|0 66,0,0,0,0,0,0,0,0,0,0,0,0,0,0,66,
scooby_state_4466d9|51|28 66,0,0,0,0,0,0,0,0,0,0,0,0,0,0,66,
scooby_state_44684c|51|28 66,0,0,0,0,0,0,0,0,0,0,0,0,0,0,66,
scooby_state_446626|8|0 65,0,0,0,0,0,0,0,0,0,0,0,1,0,0,66,
scooby_state_446791|52|28 66,0,0,0,0,0,0,0,0,0,0,0,0,0,0,66,
scooby_state_446791|25|0 66,0,0,0,0,0,0,0,0,0,0,0,0,0,0,66,
scooby_state_4465e9|36|28 66,0,0,0,0,0,0,0,0,0,0,0,0,0,0,66,
scooby_state_446791|15|0 66,0,0,0,0,0,0,0,0,0,0,0,0,0,0,66,
scooby_state_4465fb|24|0 66,0,0,0,0,0,0,0,0,0,0,0,0,0,0,66,
scooby_state_446626|24|0 65,0,0,0,0,0,0,0,0,1,0,0,0,0,0,66,
scooby_state_4469ae|11|0 66,0,0,0,0,0,0,0,0,0,0,0,0,0,0,66,
scooby_state_4469ae|23|0 66,0,0,0,0,0,0,0,0,0,0,0,0,0,0,66,
scooby_state_4469ae|51|28 66,0,0,0,0,0,0,0,0,0,0,0,0,0,0,66,
scooby_state_4466d9|45|28 66,0,0,0,0,0,0,0,0,0,0,0,0,0,0,66,
scooby_state_446907|19|0 66,0,0,0,0,0,0,0,0,0,0,0,0,0,0,66,
scooby_state_446791|14|0 66,0,0,0,0,0,0,0,0,0,0,0,0,0,0,66,
scooby_state_446626|46|28 66,0,0,0,0,0,0,0,0,0,0,0,0,0,0,66,
scooby_state_4465fb|4|0 66,0,0,0,0,0,0,0,0,0,0,0,0,0,0,66,
scooby_state_4469ae|45|28 66,0,0,0,0,0,0,0,0,0,0,0,0,0,0,66,
scooby_state_4465e9|61|28 66,0,0,0,0,0,0,0,0,0,0,0,0,0,0,66,
scooby_state_4469ae|40|28 66,0,0,0,0,0,0,0,0,0,0,0,0,0,0,66,
scooby_state_4466d9|40|28 65,0,1,0,0,0,0,0,0,0,0,0,0,0,0,66,
scooby_state_446791|58|28 66,0,0,0,0,0,0,0,0,0,0,0,0,0,0,66,
scooby_state_4465fb|22|0 66,0,0,0,0,0,0,0,0,0,0,0,0,0,0,66,
scooby_state_446907|25|0 66,0,0,0,0,0,0,0,0,0,0,0,0,0,0,66,
scooby_state_4465e9|23|0 65,0,0,0,0,0,1,0,0,0,0,0,0,0,0,66,
scooby_state_44684c|40|28 66,0,0,0,0,0,0,0,0,0,0,0,0,0,0,66,
scooby_state_4469ae|53|28 66,0,0,0,0,0,0,0,0,0,0,0,0,0,0,66,
scooby_state_446791|9|0 65,1,0,0,0,0,0,0,0,0,0,0,0,0,0,66,
scooby_state_446626|37|28 66,0,0,0,0,0,0,0,0,0,0,0,0,0,0,66,
scooby_state_4465e9|9|0 66,0,0,0,0,0,0,0,0,0,0,0,0,0,0,66,
scooby_state_446626|25|0 66,0,0,0,0,0,0,0,0,0,0,0,0,0,0,66,
scooby_state_4469ae|16|0 66,0,0,0,0,0,0,0,0,0,0,0,0,0,0,66,
scooby_state_446626|26|0 66,0,0,0,0,0,0,0,0,0,0,0,0,0,0,66,
scooby_state_446791|50|28 66,0,0,0,0,0,0,0,0,0,0,0,0,0,0,66,
scooby_state_446791|4|0 66,0,0,0,0,0,0,0,0,0,0,0,0,0,0,66,
scooby_state_4465e9|16|0 66,0,0,0,0,0,0,0,0,0,0,0,0,0,0,66,
scooby_state_446791|11|0 66,0,0,0,0,0,0,0,0,0,0,0,0,0,0,66,
scooby_state_4469ae|21|0 66,0,0,0,0,0,0,0,0,0,0,0,0,0,0,66,
scooby_state_446626|52|28 66,0,0,0,0,0,0,0,0,0,0,0,0,0,0,66,
scooby_state_44684c|21|0 66,0,0,0,0,0,0,0,0,0,0,0,0,0,0,66,
scooby_state_4465fb|18|0 66,0,0,0,0,0,0,0,0,0,0,0,0,0,0,66,
scooby_state_4466d9|54|28 65,0,0,0,0,0,0,1,0,0,0,0,0,0,0,66,
scooby_state_4469ae|31|28 66,0,0,0,0,0,0,0,0,0,0,0,0,0,0,66,
scooby_state_446791|23|0 66,0,0,0,0,0,0,0,0,0,0,0,0,0,0,66,
scooby_state_446791|18|0 66,0,0,0,0,0,0,0,0,0,0,0,0,0,0,66,
scooby_state_446907|17|0 66,0,0,0,0,0,0,0,0,0,0,0,0,0,0,66,
scooby_state_446791|21|0 66,0,0,0,0,0,0,0,0,0,0,0,0,0,0,66,
scooby_state_4465e9|21|0 65,0,1,0,0,0,0,0,0,0,0,0,0,0,0,66,
scooby_state_44684c|54|28 66,0,0,0,0,0,0,0,0,0,0,0,0,0,0,66,
scooby_state_446626|10|0 66,0,0,0,0,0,0,0,0,0,0,0,0,0,0,66,
scooby_state_446907|46|28 66,0,0,0,0,0,0,0,0,0,0,0,0,0,0,66,
scooby_state_4466d9|23|0 65,0,0,0,0,0,0,0,1,0,0,0,0,0,0,66,
scooby_state_4465e9|41|28 66,0,0,0,0,0,0,0,0,0,0,0,0,0,0,66,
scooby_state_446791|27|0 65,0,0,0,0,0,0,0,0,0,0,1,0,0,0,66,
scooby_state_446626|3|0 65,0,0,0,0,0,0,0,0,0,0,0,0,0,1,66,
scooby_state_4465fb|1|0 66,0,0,0,0,0,0,0,0,0,0,0,0,0,0,66,
scooby_state_4465e9|33|28 66,0,0,0,0,0,0,0,0,0,0,0,0,0,0,66,
scooby_state_4465e9|14|0 66,0,0,0,0,0,0,0,0,0,0,0,0,0,0,66,
scooby_state_4466d9|42|28 66,0,0,0,0,0,0,0,0,0,0,0,0,0,0,66,
scooby_state_4469ae|42|28 65,0,0,0,0,0,0,0,0,0,0,0,0,1,0,66,
scooby_state_4465fb|20|0 66,0,0,0,0,0,0,0,0,0,0,0,0,0,0,66,
scooby_state_4465e9|11|0 66,0,0,0,0,0,0,0,0,0,0,0,0,0,0,66,
scooby_state_4465e9|4|0 66,0,0,0,0,0,0,0,0,0,0,0,0,0,0,66,
scooby_state_4466d9|32|28 66,0,0,0,0,0,0,0,0,0,0,0,0,0,0,66,
scooby_state_4469ae|32|28 65,0,1,0,0,0,0,0,0,0,0,0,0,0,0,66,
scooby_state_4465fb|6|0 66,0,0,0,0,0,0,0,0,0,0,0,0,0,0,66,
scooby_state_4465fb|13|0 66,0,0,0,0,0,0,0,0,0,0,0,0,0,0,66,
scooby_state_4465e9|52|28 66,0,0,0,0,0,0,0,0,0,0,0,0,0,0,66,
scooby_state_446626|54|28 64,1,1,0,0,0,0,0,0,0,0,0,0,0,0,66,
scooby_state_446907|1|0 66,0,0,0,0,0,0,0,0,0,0,0,0,0,0,66,
scooby_state_44684c|43|28 66,0,0,0,0,0,0,0,0,0,0,0,0,0,0,66,
scooby_state_4466d9|21|0 65,0,0,0,0,0,0,0,0,0,1,0,0,0,0,66,
scooby_state_446791|60|28 66,0,0,0,0,0,0,0,0,0,0,0,0,0,0,66,
scooby_state_4465fb|25|0 66,0,0,0,0,0,0,0,0,0,0,0,0,0,0,66,
scooby_state_446907|54|28 66,0,0,0,0,0,0,0,0,0,0,0,0,0,0,66,
scooby_state_4465e9|25|0 66,0,0,0,0,0,0,0,0,0,0,0,0,0,0,66,
scooby_state_4466d9|16|0 66,0,0,0,0,0,0,0,0,0,0,0,0,0,0,66,
scooby_state_446791|33|28 66,0,0,0,0,0,0,0,0,0,0,0,0,0,0,66,
scooby_state_44684c|16|0 66,0,0,0,0,0,0,0,0,0,0,0,0,0,0,66,
scooby_state_446907|5|0 65,0,0,0,0,0,0,0,0,0,0,0,1,0,0,66,
scooby_state_4465fb|10|0 66,0,0,0,0,0,0,0,0,0,0,0,0,0,0,66,
scooby_state_4465fb|5|0 66,0,0,0,0,0,0,0,0,0,0,0,0,0,0,66,
scooby_state_446907|37|28 66,0,0,0,0,0,0,0,0,0,0,0,0,0,0,66,
scooby_state_446907|44|28 65,0,0,0,0,0,0,0,0,0,0,0,0,0,0,65,
scooby_state_446791|47|28 65,0,0,0,0,0,0,0,0,0,0,0,0,0,0,65,
scooby_state_4465e9|43|28 65,0,0,0,0,0,0,0,0,0,0,0,0,0,0,65,
scooby_state_446907|30|28 65,0,0,0,0,0,0,0,0,0,0,0,0,0,0,65,
scooby_state_446907|60|28 65,0,0,0,0,0,0,0,0,0,0,0,0,0,0,65,
scooby_state_446907|18|0 65,0,0,0,0,0,0,0,0,0,0,0,0,0,0,65,
scooby_state_446626|15|0 65,0,0,0,0,0,0,0,0,0,0,0,0,0,0,65,
scooby_state_446791|28|28 65,0,0,0,0,0,0,0,0,0,0,0,0,0,0,65,
scooby_state_446626|13|0 65,0,0,0,0,0,0,0,0,0,0,0,0,0,0,65,
scooby_state_446626|20|0 65,0,0,0,0,0,0,0,0,0,0,0,0,0,0,65,
scooby_state_446907|31|28 65,0,0,0,0,0,0,0,0,0,0,0,0,0,0,65,
scooby_state_4465e9|17|0 65,0,0,0,0,0,0,0,0,0,0,0,0,0,0,65,
scooby_state_4466d9|6|0 65,0,0,0,0,0,0,0,0,0,0,0,0,0,0,65,
scooby_state_446791|49|28 65,0,0,0,0,0,0,0,0,0,0,0,0,0,0,65,
scooby_state_44684c|2|0 65,0,0,0,0,0,0,0,0,0,0,0,0,0,0,65,
scooby_state_4469ae|50|28 65,0,0,0,0,0,0,0,0,0,0,0,0,0,0,65,
scooby_state_4466d9|50|28 65,0,0,0,0,0,0,0,0,0,0,0,0,0,0,65,
scooby_state_44684c|61|28 65,0,0,0,0,0,0,0,0,0,0,0,0,0,0,65,
scooby_state_4465e9|44|28 65,0,0,0,0,0,0,0,0,0,0,0,0,0,0,65,
scooby_state_4465e9|3|0 65,0,0,0,0,0,0,0,0,0,0,0,0,0,0,65,
scooby_state_446791|17|0 65,0,0,0,0,0,0,0,0,0,0,0,0,0,0,65,
scooby_state_446626|12|0 65,0,0,0,0,0,0,0,0,0,0,0,0,0,0,65,
scooby_state_4465e9|59|28 65,0,0,0,0,0,0,0,0,0,0,0,0,0,0,65,
scooby_state_4466d9|8|0 64,0,0,0,0,0,1,0,0,0,0,0,0,0,0,65,
scooby_state_446626|34|28 65,0,0,0,0,0,0,0,0,0,0,0,0,0,0,65,
scooby_state_4466d9|33|28 65,0,0,0,0,0,0,0,0,0,0,0,0,0,0,65,
scooby_state_446907|22|0 65,0,0,0,0,0,0,0,0,0,0,0,0,0,0,65,
scooby_state_4469ae|19|0 65,0,0,0,0,0,0,0,0,0,0,0,0,0,0,65,
scooby_state_44684c|52|28 65,0,0,0,0,0,0,0,0,0,0,0,0,0,0,65,
scooby_state_446791|59|28 65,0,0,0,0,0,0,0,0,0,0,0,0,0,0,65,
scooby_state_446907|12|0 65,0,0,0,0,0,0,0,0,0,0,0,0,0,0,65,
scooby_state_4466d9|35|28 65,0,0,0,0,0,0,0,0,0,0,0,0,0,0,65,
scooby_state_4465fb|26|0 65,0,0,0,0,0,0,0,0,0,0,0,0,0,0,65,
scooby_state_446791|1|0 65,0,0,0,0,0,0,0,0,0,0,0,0,0,0,65,
scooby_state_44684c|11|0 65,0,0,0,0,0,0,0,0,0,0,0,0,0,0,65,
scooby_state_44684c|41|28 65,0,0,0,0,0,0,0,0,0,0,0,0,0,0,65,
scooby_state_446791|56|28 65,0,0,0,0,0,0,0,0,0,0,0,0,0,0,65,
scooby_state_446626|31|28 65,0,0,0,0,0,0,0,0,0,0,0,0,0,0,65,
scooby_state_446791|44|28 65,0,0,0,0,0,0,0,0,0,0,0,0,0,0,65,
scooby_state_4465e9|38|28 65,0,0,0,0,0,0,0,0,0,0,0,0,0,0,65,
scooby_state_446626|22|0 64,0,0,0,0,0,0,0,0,0,1,0,0,0,0,65,
scooby_state_446791|19|0 65,0,0,0,0,0,0,0,0,0,0,0,0,0,0,65,
scooby_state_446907|2|0 65,0,0,0,0,0,0,0,0,0,0,0,0,0,0,65,
scooby_state_446626|2|0 65,0,0,0,0,0,0,0,0,0,0,0,0,0,0,65,
scooby_state_44684c|4|0 65,0,0,0,0,0,0,0,0,0,0,0,0,0,0,65,
scooby_state_446626|14|0 65,0,0,0,0,0,0,0,0,0,0,0,0,0,0,65,
scooby_state_446907|48|28 65,0,0,0,0,0,0,0,0,0,0,0,0,0,0,65,
scooby_state_4465fb|19|0 65,0,0,0,0,0,0,0,0,0,0,0,0,0,0,65,
scooby_state_446791|10|0 65,0,0,0,0,0,0,0,0,0,0,0,0,0,0,65,
scooby_state_446626|48|28 64,0,0,0,0,0,0,1,0,0,0,0,0,0,0,65,
scooby_state_4465e9|10|0 63,1,0,0,1,0,0,0,0,0,0,0,0,0,0,65,
scooby_state_4466d9|19|0 65,0,0,0,0,0,0,0,0,0,0,0,0,0,0,65,
scooby_state_4465e9|53|28 65,0,0,0,0,0,0,0,0,0,0,0,0,0,0,65,
scooby_state_446626|53|28 65,0,0,0,0,0,0,0,0,0,0,0,0,0,0,65,
scooby_state_446626|32|28 64,0,0,0,0,0,0,0,0,0,0,0,1,0,0,65,
scooby_state_4469ae|55|28 65,0,0,0,0,0,0,0,0,0,0,0,0,0,0,65,
scooby_state_4466d9|2|0 65,0,0,0,0,0,0,0,0,0,0,0,0,0,0,65,
scooby_state_4466d9|4|0 64,0,0,0,1,0,0,0,0,0,0,0,0,0,0,65,
scooby_state_4469ae|22|0 65,0,0,0,0,0,0,0,0,0,0,0,0,0,0,65,
scooby_state_44684c|22|0 65,0,0,0,0,0,0,0,0,0,0,0,0,0,0,65,
scooby_state_4466d9|22|0 65,0,0,0,0,0,0,0,0,0,0,0,0,0,0,65,
scooby_state_446791|48|28 65,0,0,0,0,0,0,0,0,0,0,0,0,0,0,65,
scooby_state_446791|55|28 65,0,0,0,0,0,0,0,0,0,0,0,0,0,0,65,
scooby_state_4469ae|2|0 65,0,0,0,0,0,0,0,0,0,0,0,0,0,0,65,
scooby_state_446626|29|28 65,0,0,0,0,0,0,0,0,0,0,0,0,0,0,65,
scooby_state_446791|22|0 65,0,0,0,0,0,0,0,0,0,0,0,0,0,0,65,
scooby_state_446907|36|28 65,0,0,0,0,0,0,0,0,0,0,0,0,0,0,65,
scooby_state_446791|24|0 65,0,0,0,0,0,0,0,0,0,0,0,0,0,0,65,
scooby_state_446626|36|28 65,0,0,0,0,0,0,0,0,0,0,0,0,0,0,65,
scooby_state_446791|3|0 65,0,0,0,0,0,0,0,0,0,0,0,0,0,0,65,
scooby_state_446791|37|28 65,0,0,0,0,0,0,0,0,0,0,0,0,0,0,65,
scooby_state_4465e9|37|28 65,0,0,0,0,0,0,0,0,0,0,0,0,0,0,65,
scooby_state_446791|8|0 65,0,0,0,0,0,0,0,0,0,0,0,0,0,0,65,
scooby_state_4465fb|17|0 65,0,0,0,0,0,0,0,0,0,0,0,0,0,0,65,
scooby_state_446907|51|28 65,0,0,0,0,0,0,0,0,0,0,0,0,0,0,65,
scooby_state_446907|14|0 65,0,0,0,0,0,0,0,0,0,0,0,0,0,0,65,
scooby_state_4465e9|8|0 64,1,0,0,0,0,0,0,0,0,0,0,0,0,0,65,
scooby_state_446791|53|28 65,0,0,0,0,0,0,0,0,0,0,0,0,0,0,65,
scooby_state_4466d9|11|0 65,0,0,0,0,0,0,0,0,0,0,0,0,0,0,65,
scooby_state_446907|32|28 63,0,0,1,0,0,0,0,0,0,0,1,0,0,0,65,
scooby_state_446791|29|28 65,0,0,0,0,0,0,0,0,0,0,0,0,0,0,65,
scooby_state_4465e9|29|28 65,0,0,0,0,0,0,0,0,0,0,0,0,0,0,65,
scooby_state_4465fb|8|0 65,0,0,0,0,0,0,0,0,0,0,0,0,0,0,65,
scooby_state_4465e9|47|28 64,0,0,0,0,0,0,0,0,0,0,1,0,0,0,65,
scooby_state_4465e9|24|0 65,0,0,0,0,0,0,0,0,0,0,0,0,0,0,65,
scooby_state_4465fb|14|0 65,0,0,0,0,0,0,0,0,0,0,0,0,0,0,65,
scooby_state_4465e9|26|0 63,1,0,0,0,0,0,0,0,0,0,1,0,0,0,65,
scooby_state_446907|27|0 65,0,0,0,0,0,0,0,0,0,0,0,0,0,0,65,
scooby_state_446791|39|28 65,0,0,0,0,0,0,0,0,0,0,0,0,0,0,65,
scooby_state_446907|13|0 65,0,0,0,0,0,0,0,0,0,0,0,0,0,0,65,
scooby_state_4465e9|22|0 65,0,0,0,0,0,0,0,0,0,0,0,0,0,0,65,
scooby_state_4469ae|52|28 65,0,0,0,0,0,0,0,0,0,0,0,0,0,0,65,
scooby_state_4466d9|52|28 65,0,0,0,0,0,0,0,0,0,0,0,0,0,0,65,
scooby_state_44684c|63|28 64,1,0,0,0,0,0,0,0,0,0,0,0,0,0,65,
scooby_state_4466d9|63|28 65,0,0,0,0,0,0,0,0,0,0,0,0,0,0,65,
scooby_state_4465fb|12|0 65,0,0,0,0,0,0,0,0,0,0,0,0,0,0,65,
scooby_state_446791|43|28 65,0,0,0,0,0,0,0,0,0,0,0,0,0,0,65,
scooby_state_4469ae|10|0 65,0,0,0,0,0,0,0,0,0,0,0,0,0,0,65,
scooby_state_44684c|10|0 65,0,0,0,0,0,0,0,0,0,0,0,0,0,0,65,
scooby_state_4465e9|55|28 65,0,0,0,0,0,0,0,0,0,0,0,0,0,0,65,
scooby_state_446626|55|28 65,0,0,0,0,0,0,0,0,0,0,0,0,0,0,65,
scooby_state_4469ae|44|28 65,0,0,0,0,0,0,0,0,0,0,0,0,0,0,65,
scooby_state_44684c|44|28 65,0,0,0,0,0,0,0,0,0,0,0,0,0,0,65,
scooby_state_446907|33|28 65,0,0,0,0,0,0,0,0,0,0,0,0,0,0,65,
scooby_state_446626|33|28 65,0,0,0,0,0,0,0,0,0,0,0,0,0,0,65,
scooby_state_4465fb|9|0 65,0,0,0,0,0,0,0,0,0,0,0,0,0,0,65,
scooby_state_446626|27|0 65,0,0,0,0,0,0,0,0,0,0,0,0,0,0,65,
scooby_state_4469ae|24|0 65,0,0,0,0,0,0,0,0,0,0,0,0,0,0,65,
scooby_state_446791|6|0 65,0,0,0,0,0,0,0,0,0,0,0,0,0,0,65,
scooby_state_4465fb|15|0 65,0,0,0,0,0,0,0,0,0,0,0,0,0,0,65,
scooby_state_446626|44|28 64,0,0,0,0,0,0,0,0,0,0,0,0,0,1,65,
scooby_state_4466d9|61|28 64,0,0,0,1,0,0,0,0,0,0,0,0,0,0,65,
scooby_state_4465e9|31|28 64,0,0,0,0,0,1,0,0,0,0,0,0,0,0,65,
scooby_state_446791|26|0 65,0,0,0,0,0,0,0,0,0,0,0,0,0,0,65,
scooby_state_4466d9|44|28 65,0,0,0,0,0,0,0,0,0,0,0,0,0,0,65,
scooby_state_44684c|33|28 65,0,0,0,0,0,0,0,0,0,0,0,0,0,0,65,
scooby_state_446791|31|28 65,0,0,0,0,0,0,0,0,0,0,0,0,0,0,65,
scooby_state_4469ae|33|28 65,0,0,0,0,0,0,0,0,0,0,0,0,0,0,65,
scooby_state_446907|40|28 65,0,0,0,0,0,0,0,0,0,0,0,0,0,0,65,
scooby_state_446626|50|28 65,0,0,0,0,0,0,0,0,0,0,0,0,0,0,65,
scooby_state_44684c|50|28 65,0,0,0,0,0,0,0,0,0,0,0,0,0,0,65,
[...]
scooby_state_446635|57|0 1,0,0,0,0,0,0,0,0,0,0,0,0,0,0,1,
scooby_state_4465e9|49|0 1,0,0,0,0,0,0,0,0,0,0,0,0,0,0,1,
scooby_state_44660f|57|28 1,0,0,0,0,0,0,0,0,0,0,0,0,0,0,1,
scooby_state_44677e|57|28 1,0,0,0,0,0,0,0,0,0,0,0,0,0,0,1,
scooby_state_446af0|43|0 1,0,0,0,0,0,0,0,0,0,0,0,0,0,0,1,
scooby_state_44684c|53|0 1,0,0,0,0,0,0,0,0,0,0,0,0,0,0,1,
scooby_state_446626|33|30 1,0,0,0,0,0,0,0,0,0,0,0,0,0,0,1,
scooby_state_446626|32|30 1,0,0,0,0,0,0,0,0,0,0,0,0,0,0,1,
scooby_state_4465e9|57|57 1,0,0,0,0,0,0,0,0,0,0,0,0,0,0,1,
scooby_state_44677e|2|0 1,0,0,0,0,0,0,0,0,0,0,0,0,0,0,1,
scooby_state_446650|14|-49 1,0,0,0,0,0,0,0,0,0,0,0,0,0,0,1,
scooby_state_44677e|10|-29 1,0,0,0,0,0,0,0,0,0,0,0,0,0,0,1,
scooby_state_44677e|13|-29 1,0,0,0,0,0,0,0,0,0,0,0,0,0,0,1,
scooby_state_446626|41|30 1,0,0,0,0,0,0,0,0,0,0,0,0,0,0,1,
scooby_state_446381|14|1 1,0,0,0,0,0,0,0,0,0,0,0,0,0,0,1,
scooby_state_44660f|11|0 1,0,0,0,0,0,0,0,0,0,0,0,0,0,0,1,
scooby_state_446650|12|-51 1,0,0,0,0,0,0,0,0,0,0,0,0,0,0,1,
scooby_state_44660f|53|-1 1,0,0,0,0,0,0,0,0,0,0,0,0,0,0,1,
scooby_state_446626|49|29 1,0,0,0,0,0,0,0,0,0,0,0,0,0,0,1,
scooby_state_446626|51|30 1,0,0,0,0,0,0,0,0,0,0,0,0,0,0,1,
scooby_state_4469c8|14|-36 1,0,0,0,0,0,0,0,0,0,0,0,0,0,0,1,
scooby_state_4465fb|40|0 1,0,0,0,0,0,0,0,0,0,0,0,0,0,0,1,
scooby_state_44677e|20|0 1,0,0,0,0,0,0,0,0,0,0,0,0,0,0,1,
scooby_state_446907|60|30 1,0,0,0,0,0,0,0,0,0,0,0,0,0,0,1,
scooby_state_44660f|0|-29 1,0,0,0,0,0,0,0,0,0,0,0,0,0,0,1,
scooby_state_44660f|9|0 1,0,0,0,0,0,0,0,0,0,0,0,0,0,0,1,
scooby_state_446791|38|0 1,0,0,0,0,0,0,0,0,0,0,0,0,0,0,1,
scooby_state_446907|49|29 1,0,0,0,0,0,0,0,0,0,0,0,0,0,0,1,
scooby_state_446703|28|1 1,0,0,0,0,0,0,0,0,0,0,0,0,0,0,1,
scooby_state_44666f|63|0 1,0,0,0,0,0,0,0,0,0,0,0,0,0,0,1,
scooby_state_446907|53|30 1,0,0,0,0,0,0,0,0,0,0,0,0,0,0,1,
scooby_state_44660f|54|1 1,0,0,0,0,0,0,0,0,0,0,0,0,0,0,1,
scooby_state_44685b|32|25 1,0,0,0,0,0,0,0,0,0,0,0,0,0,0,1,
scooby_state_44686c|42|0 1,0,0,0,0,0,0,0,0,0,0,0,0,0,0,1,
scooby_state_4469c8|15|-35 0,1,0,0,0,0,0,0,0,0,0,0,0,0,0,1,
scooby_state_446846|47|44 1,0,0,0,0,0,0,0,0,0,0,0,0,0,0,1,
scooby_state_446907|32|30 1,0,0,0,0,0,0,0,0,0,0,0,0,0,0,1,
scooby_state_4464c2|19|1 1,0,0,0,0,0,0,0,0,0,0,0,0,0,0,1,
scooby_state_446907|63|57 1,0,0,0,0,0,0,0,0,0,0,0,0,0,0,1,
scooby_state_4467b9|62|0 1,0,0,0,0,0,0,0,0,0,0,0,0,0,0,1,
scooby_state_446907|61|57 1,0,0,0,0,0,0,0,0,0,0,0,0,0,0,1,
scooby_state_446907|31|30 1,0,0,0,0,0,0,0,0,0,0,0,0,0,0,1,
scooby_state_4465fb|53|0 1,0,0,0,0,0,0,0,0,0,0,0,0,0,0,1,
scooby_state_446902|1|0 1,0,0,0,0,0,0,0,0,0,0,0,0,0,0,1,
scooby_state_446378|13|-23 1,0,0,0,0,0,0,0,0,0,0,0,0,0,0,1,
scooby_state_4465fb|57|57 1,0,0,0,0,0,0,0,0,0,0,0,0,0,0,1,
scooby_state_446703|62|1 1,0,0,0,0,0,0,0,0,0,0,0,0,0,0,1,
scooby_state_44677e|50|1 1,0,0,0,0,0,0,0,0,0,0,0,0,0,0,1,
scooby_state_446717|63|33 1,0,0,0,0,0,0,0,0,0,0,0,0,0,0,1,
scooby_state_446440|9|0 1,0,0,0,0,0,0,0,0,0,0,0,0,0,0,1,
scooby_state_44660f|54|0 1,0,0,0,0,0,0,0,0,0,0,0,0,0,0,1,
scooby_state_44677e|27|0 1,0,0,0,0,0,0,0,0,0,0,0,0,0,0,1,
scooby_state_44677e|11|0 1,0,0,0,0,0,0,0,0,0,0,0,0,0,0,1,
scooby_state_446635|29|0 1,0,0,0,0,0,0,0,0,0,0,0,0,0,0,1,
scooby_state_44677e|14|-29 1,0,0,0,0,0,0,0,0,0,0,0,0,0,0,1,
scooby_state_446846|45|30 1,0,0,0,0,0,0,0,0,0,0,0,0,0,0,1,
scooby_state_446a01|11|8 1,0,0,0,0,0,0,0,0,0,0,0,0,0,0,1,
scooby_state_446971|18|-2 1,0,0,0,0,0,0,0,0,0,0,0,0,0,0,1,
scooby_state_446626|53|30 1,0,0,0,0,0,0,0,0,0,0,0,0,0,0,1,
scooby_state_446540|21|1 1,0,0,0,0,0,0,0,0,0,0,0,0,0,0,1,
scooby_state_446402|16|1 1,0,0,0,0,0,0,0,0,0,0,0,0,0,0,1,
scooby_state_4465b0|22|-19 1,0,0,0,0,0,0,0,0,0,0,0,0,0,0,1,
scooby_state_4469ae|58|0 1,0,0,0,0,0,0,0,0,0,0,0,0,0,0,1,
scooby_state_446783|9|-1 1,0,0,0,0,0,0,0,0,0,0,0,0,0,0,1,
scooby_state_44666f|53|46 1,0,0,0,0,0,0,0,0,0,0,0,0,0,0,1,
scooby_state_446650|11|-52 1,0,0,0,0,0,0,0,0,0,0,0,0,0,0,1,
scooby_state_446440|9|-2 1,0,0,0,0,0,0,0,0,0,0,0,0,0,0,1,
scooby_state_4467de|23|23 1,0,0,0,0,0,0,0,0,0,0,0,0,0,0,1,
scooby_state_446896|51|37 1,0,0,0,0,0,0,0,0,0,0,0,0,0,0,1,
scooby_state_446a01|40|1 1,0,0,0,0,0,0,0,0,0,0,0,0,0,0,1,
scooby_state_446607|24|1 1,0,0,0,0,0,0,0,0,0,0,0,0,0,0,1,
scooby_state_446966|20|0 1,0,0,0,0,0,0,0,0,0,0,0,0,0,0,1,
scooby_state_446635|53|0 1,0,0,0,0,0,0,0,0,0,0,0,0,0,0,1,
scooby_state_446846|33|1 1,0,0,0,0,0,0,0,0,0,0,0,0,0,0,1,
scooby_state_4467c2|31|1 1,0,0,0,0,0,0,0,0,0,0,0,0,0,0,1,
scooby_state_446806|7|-2 1,0,0,0,0,0,0,0,0,0,0,0,0,0,0,1,
scooby_state_44693d|7|1 1,0,0,0,0,0,0,0,0,0,0,0,0,0,0,1,
scooby_state_44660f|22|0 1,0,0,0,0,0,0,0,0,0,0,0,0,0,0,1,
scooby_state_44677e|10|0 1,0,0,0,0,0,0,0,0,0,0,0,0,0,0,1,
scooby_state_44695e|21|3 1,0,0,0,0,0,0,0,0,0,0,0,0,0,0,1,
scooby_state_44677e|22|0 1,0,0,0,0,0,0,0,0,0,0,0,0,0,0,1,
scooby_state_446791|40|0 1,0,0,0,0,0,0,0,0,0,0,0,0,0,0,1,
scooby_state_446880|1|-10 1,0,0,0,0,0,0,0,0,0,0,0,0,0,0,1,
scooby_state_44677e|23|-29 1,0,0,0,0,0,0,0,0,0,0,0,0,0,0,1,
scooby_state_446762|10|-53 1,0,0,0,0,0,0,0,0,0,0,0,0,0,0,1,
scooby_state_4465fb|58|0 1,0,0,0,0,0,0,0,0,0,0,0,0,0,0,1,
scooby_state_4467b9|1|0 1,0,0,0,0,0,0,0,0,0,0,0,0,0,0,1,
scooby_state_4465fb|49|0 1,0,0,0,0,0,0,0,0,0,0,0,0,0,0,1,
scooby_state_4465e9|47|0 1,0,0,0,0,0,0,0,0,0,0,0,0,0,0,1,
scooby_state_446641|25|1 1,0,0,0,0,0,0,0,0,0,0,0,0,0,0,1,
scooby_state_446703|60|-2 1,0,0,0,0,0,0,0,0,0,0,0,0,0,0,1,
scooby_state_446902|58|0 1,0,0,0,0,0,0,0,0,0,0,0,0,0,0,1,
scooby_state_446846|45|-2 1,0,0,0,0,0,0,0,0,0,0,0,0,0,0,1,
scooby_state_446907|39|29 1,0,0,0,0,0,0,0,0,0,0,0,0,0,0,1,
scooby_state_4466cc|62|47 1,0,0,0,0,0,0,0,0,0,0,0,0,0,0,1,
scooby_state_44677e|12|-2 1,0,0,0,0,0,0,0,0,0,0,0,0,0,0,1,
scooby_state_4467de|24|24 1,0,0,0,0,0,0,0,0,0,0,0,0,0,0,1,
scooby_state_4466d9|58|0 1,0,0,0,0,0,0,0,0,0,0,0,0,0,0,1,
scooby_state_4463b9|32|20 1,0,0,0,0,0,0,0,0,0,0,0,0,0,0,1,
scooby_state_446428|11|-24 1,0,0,0,0,0,0,0,0,0,0,0,0,0,0,1,
scooby_state_446791|47|0 1,0,0,0,0,0,0,0,0,0,0,0,0,0,0,1,
scooby_state_446806|32|1 1,0,0,0,0,0,0,0,0,0,0,0,0,0,0,1,
scooby_state_446a43|41|1 1,0,0,0,0,0,0,0,0,0,0,0,0,0,0,1,
scooby_state_44660f|28|-1 1,0,0,0,0,0,0,0,0,0,0,0,0,0,0,1,
scooby_state_446626|53|29 1,0,0,0,0,0,0,0,0,0,0,0,0,0,0,1,
scooby_state_4465fb|29|0 1,0,0,0,0,0,0,0,0,0,0,0,0,0,0,1,
scooby_state_4466c4|27|1 1,0,0,0,0,0,0,0,0,0,0,0,0,0,0,1,
scooby_state_446907|49|30 1,0,0,0,0,0,0,0,0,0,0,0,0,0,0,1,
scooby_state_44677e|38|28 1,0,0,0,0,0,0,0,0,0,0,0,0,0,0,1,
scooby_state_446a67|28|1 1,0,0,0,0,0,0,0,0,0,0,0,0,0,0,1,
scooby_state_4465e9|63|0 1,0,0,0,0,0,0,0,0,0,0,0,0,0,0,1,
scooby_state_446907|42|29 1,0,0,0,0,0,0,0,0,0,0,0,0,0,0,1,
scooby_state_446896|4|-41 1,0,0,0,0,0,0,0,0,0,0,0,0,0,0,1,
scooby_state_44677e|18|0 1,0,0,0,0,0,0,0,0,0,0,0,0,0,0,1,
scooby_state_4465fb|62|0 1,0,0,0,0,0,0,0,0,0,0,0,0,0,0,1,
scooby_state_44660f|57|0 1,0,0,0,0,0,0,0,0,0,0,0,0,0,0,1,
scooby_state_446b41|30|-4 1,0,0,0,0,0,0,0,0,0,0,0,0,0,0,1,
scooby_state_44660f|20|0 1,0,0,0,0,0,0,0,0,0,0,0,0,0,0,1,
scooby_state_446626|51|29 1,0,0,0,0,0,0,0,0,0,0,0,0,0,0,1,
scooby_state_446a13|27|0 1,0,0,0,0,0,0,0,0,0,0,0,0,0,0,1,
scooby_state_446880|34|1 1,0,0,0,0,0,0,0,0,0,0,0,0,0,0,1,
scooby_state_4467b9|60|0 1,0,0,0,0,0,0,0,0,0,0,0,0,0,0,1,
scooby_state_4467b9|61|0 1,0,0,0,0,0,0,0,0,0,0,0,0,0,0,1,
scooby_state_44697f|34|13 1,0,0,0,0,0,0,0,0,0,0,0,0,0,0,1,
scooby_state_446907|58|30 1,0,0,0,0,0,0,0,0,0,0,0,0,0,0,1,
scooby_state_4468a5|6|-46 1,0,0,0,0,0,0,0,0,0,0,0,0,0,0,1,
scooby_state_446783|30|1 1,0,0,0,0,0,0,0,0,0,0,0,0,0,0,1,
scooby_state_4465e9|56|0 1,0,0,0,0,0,0,0,0,0,0,0,0,0,0,1,
scooby_state_4469f2|37|0 1,0,0,0,0,0,0,0,0,0,0,0,0,0,0,1,
scooby_state_446907|33|30 1,0,0,0,0,0,0,0,0,0,0,0,0,0,0,1,
scooby_state_4469fb|60|0 1,0,0,0,0,0,0,0,0,0,0,0,0,0,0,1,
scooby_state_44677e|32|-29 1,0,0,0,0,0,0,0,0,0,0,0,0,0,0,1,
scooby_state_446428|11|-1 1,0,0,0,0,0,0,0,0,0,0,0,0,0,0,1,
scooby_state_44669e|29|0 1,0,0,0,0,0,0,0,0,0,0,0,0,0,0,1,
scooby_state_44677e|11|-2 1,0,0,0,0,0,0,0,0,0,0,0,0,0,0,1,
scooby_state_44677e|57|0 1,0,0,0,0,0,0,0,0,0,0,0,0,0,0,1,
scooby_state_446381|33|23 1,0,0,0,0,0,0,0,0,0,0,0,0,0,0,1,
scooby_state_446703|60|-1 1,0,0,0,0,0,0,0,0,0,0,0,0,0,0,1,
scooby_state_4463d1|29|-3 1,0,0,0,0,0,0,0,0,0,0,0,0,0,0,1,
scooby_state_446907|56|29 1,0,0,0,0,0,0,0,0,0,0,0,0,0,0,1,
scooby_state_4469c8|12|0 1,0,0,0,0,0,0,0,0,0,0,0,0,0,0,1,
scooby_state_446650|11|-51 1,0,0,0,0,0,0,0,0,0,0,0,0,0,0,1,
scooby_state_4466cc|62|22 1,0,0,0,0,0,0,0,0,0,0,0,0,0,0,1,
scooby_state_44660f|27|0 1,0,0,0,0,0,0,0,0,0,0,0,0,0,0,1,
scooby_state_4462c6|11|1 1,0,0,0,0,0,0,0,0,0,0,0,0,0,0,1,
scooby_state_446285|10|1 1,0,0,0,0,0,0,0,0,0,0,0,0,0,0,1,
scooby_state_4466cc|63|50 1,0,0,0,0,0,0,0,0,0,0,0,0,0,0,1,
scooby_state_446245|9|1 1,0,0,0,0,0,0,0,0,0,0,0,0,0,0,1,
scooby_state_4469fb|52|0 1,0,0,0,0,0,0,0,0,0,0,0,0,0,0,1,
scooby_state_446b01|44|1 1,0,0,0,0,0,0,0,0,0,0,0,0,0,0,1,
scooby_state_446500|20|1 1,0,0,0,0,0,0,0,0,0,0,0,0,0,0,1,
scooby_state_4469dc|3|0 1,0,0,0,0,0,0,0,0,0,0,0,0,0,0,1,
scooby_state_44677e|57|-1 1,0,0,0,0,0,0,0,0,0,0,0,0,0,0,1,
scooby_state_446635|58|0 1,0,0,0,0,0,0,0,0,0,0,0,0,0,0,1,
scooby_state_44666f|35|-28 1,0,0,0,0,0,0,0,0,0,0,0,0,0,0,1,
scooby_state_44660f|10|0 1,0,0,0,0,0,0,0,0,0,0,0,0,0,0,1,
scooby_state_44660f|18|0 1,0,0,0,0,0,0,0,0,0,0,0,0,0,0,1,
scooby_state_44677e|20|-29 1,0,0,0,0,0,0,0,0,0,0,0,0,0,0,1,
scooby_state_446907|48|30 1,0,0,0,0,0,0,0,0,0,0,0,0,0,0,1,
scooby_state_44677e|57|1 1,0,0,0,0,0,0,0,0,0,0,0,0,0,0,1,
scooby_state_446626|48|30 1,0,0,0,0,0,0,0,0,0,0,0,0,0,0,1,
scooby_state_446791|31|0 1,0,0,0,0,0,0,0,0,0,0,0,0,0,0,1,
scooby_state_4467b9|53|0 1,0,0,0,0,0,0,0,0,0,0,0,0,0,0,1,
scooby_state_4468a5|7|-49 1,0,0,0,0,0,0,0,0,0,0,0,0,0,0,1,
scooby_state_4469f2|38|23 1,0,0,0,0,0,0,0,0,0,0,0,0,0,0,1,
scooby_state_446626|39|29 1,0,0,0,0,0,0,0,0,0,0,0,0,0,0,1,
scooby_state_4469ae|57|0 1,0,0,0,0,0,0,0,0,0,0,0,0,0,0,1,
scooby_state_446791|57|57 1,0,0,0,0,0,0,0,0,0,0,0,0,0,0,1,
scooby_state_4467de|22|0 1,0,0,0,0,0,0,0,0,0,0,0,0,0,0,1,
scooby_state_446650|16|-46 1,0,0,0,0,0,0,0,0,0,0,0,0,0,0,1,
scooby_state_4466cc|61|34 1,0,0,0,0,0,0,0,0,0,0,0,0,0,0,1,
scooby_state_446917|60|-1 1,0,0,0,0,0,0,0,0,0,0,0,0,0,0,1,
scooby_state_446902|62|0 1,0,0,0,0,0,0,0,0,0,0,0,0,0,0,1,
scooby_state_446440|17|1 1,0,0,0,0,0,0,0,0,0,0,0,0,0,0,1,
scooby_state_44677e|6|-29 1,0,0,0,0,0,0,0,0,0,0,0,0,0,0,1,
scooby_state_446428|11|0 1,0,0,0,0,0,0,0,0,0,0,0,0,0,0,1,
scooby_state_446907|35|30 1,0,0,0,0,0,0,0,0,0,0,0,0,0,0,1,
scooby_state_44670f|60|0 0,0,0,1,0,0,0,0,0,0,0,0,0,0,0,1,
scooby_state_44640d|35|6 1,0,0,0,0,0,0,0,0,0,0,0,0,0,0,1,
scooby_state_4466cc|63|52 1,0,0,0,0,0,0,0,0,0,0,0,0,0,0,1,
scooby_state_446987|38|1 1,0,0,0,0,0,0,0,0,0,0,0,0,0,0,1,
scooby_state_4469c1|39|1 1,0,0,0,0,0,0,0,0,0,0,0,0,0,0,1,
scooby_state_44698f|27|0 1,0,0,0,0,0,0,0,0,0,0,0,0,0,0,1,
scooby_state_44672d|22|1 1,0,0,0,0,0,0,0,0,0,0,0,0,0,0,1,
scooby_state_446626|42|29 1,0,0,0,0,0,0,0,0,0,0,0,0,0,0,1,
scooby_state_44677e|19|-29 1,0,0,0,0,0,0,0,0,0,0,0,0,0,0,1,
scooby_state_4465be|63|5 1,0,0,0,0,0,0,0,0,0,0,0,0,0,0,1,
scooby_state_446303|12|1 1,0,0,0,0,0,0,0,0,0,0,0,0,0,0,1,
scooby_state_446846|46|9 1,0,0,0,0,0,0,0,0,0,0,0,0,0,0,1,
scooby_state_44669e|29|-5 1,0,0,0,0,0,0,0,0,0,0,0,0,0,0,1,
scooby_state_446480|18|1 1,0,0,0,0,0,0,0,0,0,0,0,0,0,0,1,
scooby_state_446791|49|0 1,0,0,0,0,0,0,0,0,0,0,0,0,0,0,1,
scooby_state_446947|37|0 1,0,0,0,0,0,0,0,0,0,0,0,0,0,0,1,
scooby_state_44660f|20|-2 1,0,0,0,0,0,0,0,0,0,0,0,0,0,0,1,
scooby_state_4467b9|29|0 1,0,0,0,0,0,0,0,0,0,0,0,0,0,0,1,
scooby_state_4463d1|29|0 1,0,0,0,0,0,0,0,0,0,0,0,0,0,0,1,
scooby_state_446635|4|0 1,0,0,0,0,0,0,0,0,0,0,0,0,0,0,1,
scooby_state_44672d|21|9 1,0,0,0,0,0,0,0,0,0,0,0,0,0,0,1,
scooby_state_446896|51|38 1,0,0,0,0,0,0,0,0,0,0,0,0,0,0,1,
scooby_state_446791|63|0 1,0,0,0,0,0,0,0,0,0,0,0,0,0,0,1,
scooby_state_446200|8|-37 1,0,0,0,0,0,0,0,0,0,0,0,0,0,0,1,
scooby_state_446b61|4|-26 1,0,0,0,0,0,0,0,0,0,0,0,0,0,0,1,
scooby_state_44660f|58|1 1,0,0,0,0,0,0,0,0,0,0,0,0,0,0,1,
scooby_state_4465c6|23|1 1,0,0,0,0,0,0,0,0,0,0,0,0,0,0,1,
scooby_state_446626|58|30 1,0,0,0,0,0,0,0,0,0,0,0,0,0,0,1,
scooby_state_44677e|28|-29 1,0,0,0,0,0,0,0,0,0,0,0,0,0,0,1,
scooby_state_446b41|45|1 1,0,0,0,0,0,0,0,0,0,0,0,0,0,0,1,
scooby_state_446626|30|29 1,0,0,0,0,0,0,0,0,0,0,0,0,0,0,1,
scooby_state_44660f|63|29 1,0,0,0,0,0,0,0,0,0,0,0,0,0,0,1,
scooby_state_44660f|2|0 1,0,0,0,0,0,0,0,0,0,0,0,0,0,0,1,
scooby_state_446791|56|0 1,0,0,0,0,0,0,0,0,0,0,0,0,0,0,1,
scooby_state_44677e|59|1 1,0,0,0,0,0,0,0,0,0,0,0,0,0,0,1,
scooby_state_446681|60|-2 1,0,0,0,0,0,0,0,0,0,0,0,0,0,0,1,
scooby_state_44660f|29|28 1,0,0,0,0,0,0,0,0,0,0,0,0,0,0,1,
scooby_state_44677e|37|0 1,0,0,0,0,0,0,0,0,0,0,0,0,0,0,1,
scooby_state_4465e9|40|0 1,0,0,0,0,0,0,0,0,0,0,0,0,0,0,1,
scooby_state_4467f6|56|-4 1,0,0,0,0,0,0,0,0,0,0,0,0,0,0,1,
scooby_state_446907|40|30 1,0,0,0,0,0,0,0,0,0,0,0,0,0,0,1,
scooby_state_4463c1|15|1 1,0,0,0,0,0,0,0,0,0,0,0,0,0,0,1,
scooby_state_44677e|39|1 1,0,0,0,0,0,0,0,0,0,0,0,0,0,0,1,
scooby_state_44660f|62|0 1,0,0,0,0,0,0,0,0,0,0,0,0,0,0,1,
scooby_state_446626|49|30 1,0,0,0,0,0,0,0,0,0,0,0,0,0,0,1,

scooby_action_0_deg_dist 0,13,0,0,0,0,0,0,0,0,0,0,0,0,0,0,
scooby_action_12_deg_dist 0,13,0,0,0,0,0,0,0,0,0,0,0,0,0,0,
scooby_action_3_deg_dist 0,33,0,0,0,0,0,0,0,0,0,0,0,0,0,0,
scooby_action_32_deg_dist 0,15,0,0,0,0,0,0,0,0,0,0,0,0,0,0,
scooby_action_5_deg_dist 0,30,0,0,0,0,0,0,0,0,0,0,0,0,0,0,
scooby_action_1_deg_dist 0,47563,27854,0,7829,0,18832,0,0,0,0,0,0,0,0,0,
scooby_action_30_deg_dist 0,14,0,0,0,0,0,0,0,0,0,0,0,0,0,0,
scooby_action_4_deg_dist 0,20,0,0,0,0,0,0,0,0,0,0,0,0,0,0,
scooby_action_-3_deg_dist 0,10,0,0,0,0,0,0,0,0,0,0,0,0,0,0,
scooby_action_10_deg_dist 0,25,0,0,0,0,0,0,0,0,0,0,0,0,0,0,
scooby_action_-1_deg_dist 0,15,0,0,0,0,0,0,0,0,0,0,0,0,0,0,
scooby_action_23_deg_dist 0,16,0,0,0,0,0,0,0,0,0,0,0,0,0,0,
scooby_action_-6_deg_dist 0,9,0,0,0,0,0,0,0,0,0,0,0,0,0,0,
scooby_action_11_deg_dist 0,15,0,0,0,0,0,0,0,0,0,0,0,0,0,0,
scooby_action_22_deg_dist 0,16,0,0,0,0,0,0,0,0,0,0,0,0,0,0,

scooby_track_called 102322
scooby_track_same_address 175
scooby_track_evict 101891

scooby_reward_demand_called 102322
scooby_reward_demand_pt_not_found 35121
scooby_reward_demand_pt_found 67201
scooby_reward_demand_pt_found_total 67201
scooby_reward_demand_has_reward 122
scooby_reward_train_called 33262
scooby_reward_assign_reward_called 102057
scooby_reward_no_pref 13
scooby_reward_incorrect 33249
scooby_reward_correct_untimely 21828
scooby_reward_correct_timely 45251
scooby_reward_out_of_bounds 1716
scooby_reward_tracker_hit 0

scooby_reward_none_low_bw 13
scooby_reward_none_high_bw 0
scooby_reward_incorrect_low_bw 33249
scooby_reward_incorrect_high_bw 0
scooby_reward_correct_untimely_low_bw 21828
scooby_reward_correct_untimely_high_bw 0
scooby_reward_correct_timely_low_bw 45251
scooby_reward_correct_timely_high_bw 0
scooby_reward_out_of_bounds_low_bw 1716
scooby_reward_out_of_bounds_high_bw 0
scooby_reward_tracker_hit_low_bw 0
scooby_reward_tracker_hit_high_bw 0

scooby_reward_1 0,33107,21819,45241,1651,0,
scooby_reward_3 0,20,7,0,6,0,
scooby_reward_4 0,13,1,0,6,0,
scooby_reward_5 0,24,1,1,4,0,
scooby_reward_10 0,11,0,3,11,0,
scooby_reward_11 0,10,0,3,2,0,
scooby_reward_12 0,10,0,0,3,0,
scooby_reward_22 0,7,0,0,9,0,
scooby_reward_23 0,9,0,0,7,0,
scooby_reward_30 0,2,0,3,9,0,
scooby_reward_32 0,7,0,0,8,0,
scooby_reward_-1 0,14,0,0,0,0,
scooby_reward_-3 0,8,0,0,0,0,
scooby_reward_-6 0,7,0,0,0,0,
scooby_reward_0 13,0,0,0,0,0,

scooby_train_called 101890
scooby_train_compute_reward 33262

scooby_register_fill_called 120253
scooby_register_fill_set 66250
scooby_register_fill_set_total 66250

scooby_register_prefetch_hit_called 108095
scooby_register_prefetch_hit_set 34206
scooby_register_prefetch_hit_set_total 34206

scooby_pref_issue_scooby 228482

learning_engine_featurewise.action.called 102322
learning_engine_featurewise.action.explore 192
learning_engine_featurewise.action.exploit 102130
learning_engine_featurewise.action.fallback 0
learning_engine_featurewise.action.dyn_fallback_saved_bw 0
learning_engine_featurewise.action.dyn_fallback_saved_bw_acc 1332
learning_engine_featurewise.action.index_1_explored 12
learning_engine_featurewise.action.index_1_exploited 102066
learning_engine_featurewise.action.index_3_explored 14
learning_engine_featurewise.action.index_3_exploited 19
learning_engine_featurewise.action.index_4_explored 13
learning_engine_featurewise.action.index_4_exploited 7
learning_engine_featurewise.action.index_5_explored 11
learning_engine_featurewise.action.index_5_exploited 19
learning_engine_featurewise.action.index_10_explored 18
learning_engine_featurewise.action.index_10_exploited 7
learning_engine_featurewise.action.index_11_explored 14
learning_engine_featurewise.action.index_11_exploited 1
learning_engine_featurewise.action.index_12_explored 12
learning_engine_featurewise.action.index_12_exploited 1
learning_engine_featurewise.action.index_22_explored 15
learning_engine_featurewise.action.index_22_exploited 1
learning_engine_featurewise.action.index_23_explored 15
learning_engine_featurewise.action.index_23_exploited 1
learning_engine_featurewise.action.index_30_explored 13
learning_engine_featurewise.action.index_30_exploited 1
learning_engine_featurewise.action.index_32_explored 13
learning_engine_featurewise.action.index_32_exploited 2
learning_engine_featurewise.action.index_-1_explored 14
learning_engine_featurewise.action.index_-1_exploited 1
learning_engine_featurewise.action.index_-3_explored 9
learning_engine_featurewise.action.index_-3_exploited 1
learning_engine_featurewise.action.index_-6_explored 8
learning_engine_featurewise.action.index_-6_exploited 1
learning_engine_featurewise.action.index_0_explored 11
learning_engine_featurewise.action.index_0_exploited 2
learning_engine_featurewise.learn.called 101890
learning_engine_featurewise.learn.su_skip_PC 0
learning_engine_featurewise.learn.su_skip_PC_Delta 0

learning_engine_featurewise.q_value_histogram.bucket_0 0
learning_engine_featurewise.q_value_histogram.bucket_1 0
learning_engine_featurewise.q_value_histogram.bucket_2 0
learning_engine_featurewise.q_value_histogram.bucket_3 2
learning_engine_featurewise.q_value_histogram.bucket_4 1089
learning_engine_featurewise.q_value_histogram.bucket_5 2087
learning_engine_featurewise.q_value_histogram.bucket_6 98952
learning_engine_featurewise.q_value_histogram.bucket_7 0

learning_engine_featurewise.consensus.total 102130
learning_engine_featurewise.consensus.feature_align_PC 102057
learning_engine_featurewise.consensus.feature_align_PC_ratio 1.00
learning_engine_featurewise.consensus.feature_align_PC_Delta 100116
learning_engine_featurewise.consensus.feature_align_PC_Delta_ratio 0.98
learning_engine_featurewise.consensus.feature_align_all 100043
learning_engine_featurewise.consensus.feature_align_all_ratio 0.98

learning_engine_featurewise.feature_PC_min_weight 1000000.00000000
learning_engine_featurewise.feature_PC_max_weight 0.00000000
learning_engine_featurewise.feature_PC_Delta_min_weight 1000000.00000000
learning_engine_featurewise.feature_PC_Delta_max_weight 0.00000000
unique_pcs 92
unique_pages 12112
unique_trigger_pcs 45
total_bitmaps_seen 0
unique_bitmaps_seen 0

scooby_bw_epochs 66338
scooby_bw_level_0 51509
scooby_bw_level_1 12580
scooby_bw_level_2 2080
scooby_bw_level_3 169

scooby_ipc_epochs 0
scooby_ipc_level_0 0
scooby_ipc_level_1 0
scooby_ipc_level_2 0
scooby_ipc_level_3 0

scooby_cache_acc_epochs 15539
scooby_cache_acc_level_0 3
scooby_cache_acc_level_1 116
scooby_cache_acc_level_2 691
scooby_cache_acc_level_3 1211
scooby_cache_acc_level_4 1948
scooby_cache_acc_level_5 2962
scooby_cache_acc_level_6 2483
scooby_cache_acc_level_7 2032
scooby_cache_acc_level_8 1366
scooby_cache_acc_level_9 2727

Channel_0_RQ_row_buffer_hit 63184
Channel_0_RQ_row_buffer_miss 45985
Channel_0_WQ_row_buffer_hit 4036
Channel_0_WQ_row_buffer_miss 34320
Channel_0_WQ_full 0
Channel_0_dbus_congested 41707

avg_congested_cycle 9

DRAM_bw_pochs 66338
DRAM_bw_level_0 51509
DRAM_bw_level_1 12580
DRAM_bw_level_2 2080
DRAM_bw_level_3 169
