Original cmd-> /cluster/home/vlnitu/CA-Lab4-24-vlnitu/Pythia/bin/perceptron-no-multi-no-ship-1core --warmup_instructions=1000000 --simulation_instructions=10000000 --l2c_prefetcher_types=scooby --config=/cluster/home/vlnitu/CA-Lab4-24-vlnitu/Pythia/config/pythia.ini --mail-type=BEGIN,END  -traces /cluster/home/vlnitu/CA-Lab4-24-vlnitu/Pythia/traces/462.libquantum-714B.champsimtrace.xz
*************************************************
   ChampSim Multicore Out-of-Order Simulator
   Last compiled: Nov 19 2024 20:10:11
*************************************************
parsing config file: /cluster/home/vlnitu/CA-Lab4-24-vlnitu/Pythia/config/pythia.ini
unable to parse section: , name: mail-type, value: BEGIN,END

trace_0 /cluster/home/vlnitu/CA-Lab4-24-vlnitu/Pythia/traces/462.libquantum-714B.champsimtrace.xz
adding L2C_PREFETCHER: Scooby
Initialize SHIP state
warmup_instructions 1000000
simulation_instructions 10000000
champsim_seed 222
measure_ipc 0
measure_ipc_epoch 1000
measure_dram_bw 1
measure_dram_bw_epoch 256
measure_cache_acc 1
measure_cache_acc_epoch 1024
l1d_perfect 0
l2c_perfect 0
llc_perfect 0
l1d_semi_perfect 0
l2c_semi_perfect 0
llc_semi_perfect 0
semi_perfect_cache_page_buffer_size 64

num_cpus 1
cpu_freq 4000
dram_io_freq 2400
page_size 4096
block_size 64
max_read_per_cycle 8
max_fill_per_cycle 1
dram_channels 1
log2_dram_channels 0
dram_ranks 1
dram_banks 8
dram_rows 65536
dram_columns 128
dram_row_size 8
dram_size 4096
dram_pages 1048576

fetch_width 6
decode_width 6
exec_width 4
lq_width 2
sq_width 2
retire_width 4
scheduler_size 128
branch_mispredict_penalty 20
rob_size 256
lq_size 72
sq_size 56
num_instr_destinations_sparc 4
num_instr_destinations 2
num_instr_sources 4

itlb_set 16
itlb_way 8
itlb_rq_size 16
itlb_wq_size 16
itlb_pq_size 0
itlb_mshr_size 8
itlb_latency 1

dtlb_set 16
dtlb_way 4
dtlb_rq_size 16
dtlb_wq_size 16
dtlb_pq_size 0
dtlb_mshr_size 8
dtlb_latency 1

stlb_set 128
stlb_way 12
stlb_rq_size 32
stlb_wq_size 32
stlb_pq_size 0
stlb_mshr_size 16
stlb_latency 8

l1i_size 32
l1i_set 64
l1i_way 8
l1i_rq_size 64
l1i_wq_size 64
l1i_pq_size 8
l1i_mshr_size 8
l1i_latency 1

l1d_size 32
l1d_set 64
l1d_way 8
l1d_rq_size 64
l1d_wq_size 64
l1d_pq_size 8
l1d_mshr_size 16
l1d_latency 4

l2c_size 256
l2c_set 512
l2c_way 8
l2c_rq_size 32
l2c_wq_size 32
l2c_pq_size 32
l2c_mshr_size 32
l2c_latency 10

llc_size 2048
llc_set 2048
llc_way 16
llc_rq_size 32
llc_wq_size 32
llc_pq_size 32
llc_mshr_size 64
llc_latency 20

dram_channel_width 8
dram_wq_size 64
dram_rq_size 64
tRP 15
tRCD 15
tCAS 12.5
dram_dbus_turn_around_time 30
dram_write_high_wm 56
dram_write_low_wm 48
min_dram_writes_per_switch 16
dram_mtps 2400
dram_dbus_return_time 13

scooby_alpha 0.0065088
scooby_gamma 0.556301
scooby_epsilon 0.00182284
scooby_state_num_bits 10
scooby_max_states 1024
scooby_seed 200
scooby_policy EGreedy
scooby_learning_type SARSA
scooby_actions 1,3,4,5,10,11,12,22,23,30,32,-1,-3,-6,0,
scooby_max_actions 15
scooby_pt_size 256
scooby_st_size 64
scooby_max_pcs 5
scooby_max_offsets 5
scooby_max_deltas 5
scooby_reward_none -4
scooby_reward_incorrect -8
scooby_reward_correct_untimely 12
scooby_reward_correct_timely 20
scooby_brain_zero_init 0
scooby_enable_reward_all 0
scooby_enable_track_multiple 0
scooby_enable_reward_out_of_bounds 1
scooby_reward_out_of_bounds -12
scooby_state_type 1
scooby_state_hash_type 11
scooby_access_debug 0
scooby_print_access_debug 0
scooby_print_access_debug_pc deadbeef
scooby_print_access_debug_pc_count 0
scooby_print_trace 0
scooby_enable_state_action_stats 1
scooby_enable_reward_tracker_hit 0
scooby_reward_tracker_hit -2
scooby_enable_featurewise_engine 1
scooby_pref_degree 1
scooby_enable_dyn_degree 1
scooby_max_to_avg_q_thresholds 0.5,1,2,
scooby_dyn_degrees 1,2,4,4,
scooby_multi_deg_select_type 2
scooby_last_pref_offset_conf_thresholds 1,3,8,
scooby_dyn_degrees_type2 1,2,4,6,
scooby_action_tracker_size 2
scooby_high_bw_thresh 4
scooby_enable_hbw_reward 1
scooby_reward_hbw_correct_timely 20
scooby_reward_hbw_correct_untimely 12
scooby_reward_hbw_incorrect -14
scooby_reward_hbw_none -2
scooby_reward_hbw_out_of_bounds -12
scooby_reward_hbw_tracker_hit -2
scooby_last_pref_offset_conf_thresholds_hbw 1,3,8,
scooby_dyn_degrees_type2_hbw 1,2,4,6,

le_enable_trace 0
le_trace_interval 0
le_trace_file_name 
le_trace_state 0
le_enable_score_plot 0
le_plot_file_name 
le_plot_actions 
le_enable_action_trace 0
le_action_trace_interval 0
le_action_trace_name 
le_enable_action_plot 0

le_featurewise_active_features PC, PC_Delta
le_featurewise_num_tilings 3,3,
le_featurewise_num_tiles 128,128,
le_featurewise_hash_types 2,2,
le_featurewise_enable_tiling_offset 1,1,
le_featurewise_max_q_thresh 0.5
le_featurewise_enable_action_fallback 1
le_featurewise_feature_weights 1,1,
le_featurewise_enable_dynamic_weight 0
le_featurewise_weight_gradient 0.001
le_featurewise_disable_adjust_weight_all_features_align 1
le_featurewise_selective_update 0
le_featurewise_pooling_type 2
le_featurewise_enable_dyn_action_fallback 1
le_featurewise_bw_acc_check_level 1
le_featurewise_acc_thresh 2
le_featurewise_enable_trace 0
le_featurewise_trace_feature_type 0
le_featurewise_trace_feature 
le_featurewise_trace_interval 0
le_featurewise_trace_record_count 0
le_featurewise_trace_file_name 
le_featurewise_enable_score_plot 0
le_featurewise_plot_actions 
le_featurewise_plot_file_name 


Heartbeat CPU  0 instructions:    1000000 cycles:     548321 heartbeat IPC: 1.82375 cumulative IPC: 1.82375 (Simulation time: 0 hr 0 min 1 sec) 

Warmup complete CPU  0 instructions:    1000002 cycles:     548322 (Simulation time: 0 hr 0 min 1 sec) 

Heartbeat CPU  0 instructions:    2000003 cycles:    1298409 heartbeat IPC: 1.33318 cumulative IPC: 1.33318 (Simulation time: 0 hr 0 min 3 sec) 
Heartbeat CPU  0 instructions:    3000002 cycles:    2046916 heartbeat IPC: 1.33599 cumulative IPC: 1.33458 (Simulation time: 0 hr 0 min 4 sec) 
Heartbeat CPU  0 instructions:    4000000 cycles:    2794546 heartbeat IPC: 1.33756 cumulative IPC: 1.33557 (Simulation time: 0 hr 0 min 6 sec) 
Heartbeat CPU  0 instructions:    5000000 cycles:    3542530 heartbeat IPC: 1.33693 cumulative IPC: 1.33591 (Simulation time: 0 hr 0 min 7 sec) 
Heartbeat CPU  0 instructions:    6000002 cycles:    4291848 heartbeat IPC: 1.33455 cumulative IPC: 1.33564 (Simulation time: 0 hr 0 min 8 sec) 
Heartbeat CPU  0 instructions:    7000001 cycles:    5040551 heartbeat IPC: 1.33564 cumulative IPC: 1.33564 (Simulation time: 0 hr 0 min 10 sec) 
Heartbeat CPU  0 instructions:    8000000 cycles:    5788865 heartbeat IPC: 1.33634 cumulative IPC: 1.33574 (Simulation time: 0 hr 0 min 11 sec) 
Heartbeat CPU  0 instructions:    9000000 cycles:    6671791 heartbeat IPC: 1.13260 cumulative IPC: 1.30645 (Simulation time: 0 hr 0 min 13 sec) 
Heartbeat CPU  0 instructions:   10000000 cycles:    8524254 heartbeat IPC: 0.53982 cumulative IPC: 1.12839 (Simulation time: 0 hr 0 min 15 sec) 
Heartbeat CPU  0 instructions:   11000000 cycles:   10683541 heartbeat IPC: 0.46312 cumulative IPC: 0.98666 (Simulation time: 0 hr 0 min 17 sec) 
Finished CPU 0 instructions: 10000002 cycles: 10135220 cumulative IPC: 0.98666 (Simulation time: 0 hr 0 min 17 sec) 

ChampSim completed all CPUs

[ROI Statistics]
Core_0_instructions 10000002
Core_0_cycles 10135220
Core_0_IPC 0.98666

Core_0_branch_prediction_accuracy 99.99947
Core_0_branch_MPKI 0.00090
Core_0_average_ROB_occupancy_at_mispredict 37.66667

Core_0_L1D_total_access 1429210
Core_0_L1D_total_hit 1166043
Core_0_L1D_total_miss 263167
Core_0_L1D_loads 1034434
Core_0_L1D_load_hit 771271
Core_0_L1D_load_miss 263163
Core_0_L1D_RFOs 394776
Core_0_L1D_RFO_hit 394772
Core_0_L1D_RFO_miss 4
Core_0_L1D_prefetches 0
Core_0_L1D_prefetch_hit 0
Core_0_L1D_prefetch_miss 0
Core_0_L1D_writebacks 0
Core_0_L1D_writeback_hit 0
Core_0_L1D_writeback_miss 0
Core_0_L1D_prefetch_requested 0
Core_0_L1D_prefetch_dropped 0
Core_0_L1D_prefetch_issued 0
Core_0_L1D_prefetch_filled 0
Core_0_L1D_prefetch_useful 0
Core_0_L1D_prefetch_useless 0
Core_0_L1D_prefetch_late 0
Core_0_L1D_average_miss_latency 70.65243

Core_0_L1D_rq_access 3157948
Core_0_L1D_rq_forward 0
Core_0_L1D_rq_merged 1886694
Core_0_L1D_rq_to_cache 1271254
Core_0_L1D_rq_full 0

Core_0_L1D_wq_access 394786
Core_0_L1D_wq_forward 0
Core_0_L1D_wq_merged 0
Core_0_L1D_wq_to_cache 394786
Core_0_L1D_wq_full 0

Core_0_L1D_pq_access 0
Core_0_L1D_pq_forward 0
Core_0_L1D_pq_merged 0
Core_0_L1D_pq_to_cache 0
Core_0_L1D_pq_full 0

Core_0_L1D_acc_epochs 10036
Core_0_L1D_acc_level_0 10036
Core_0_L1D_acc_level_1 0
Core_0_L1D_acc_level_2 0
Core_0_L1D_acc_level_3 0
Core_0_L1D_acc_level_4 0
Core_0_L1D_acc_level_5 0
Core_0_L1D_acc_level_6 0
Core_0_L1D_acc_level_7 0
Core_0_L1D_acc_level_8 0
Core_0_L1D_acc_level_9 0

Core_0_L1I_total_access 3440903
Core_0_L1I_total_hit 3440892
Core_0_L1I_total_miss 11
Core_0_L1I_loads 3440903
Core_0_L1I_load_hit 3440892
Core_0_L1I_load_miss 11
Core_0_L1I_RFOs 0
Core_0_L1I_RFO_hit 0
Core_0_L1I_RFO_miss 0
Core_0_L1I_prefetches 0
Core_0_L1I_prefetch_hit 0
Core_0_L1I_prefetch_miss 0
Core_0_L1I_writebacks 0
Core_0_L1I_writeback_hit 0
Core_0_L1I_writeback_miss 0
Core_0_L1I_prefetch_requested 0
Core_0_L1I_prefetch_dropped 0
Core_0_L1I_prefetch_issued 0
Core_0_L1I_prefetch_filled 0
Core_0_L1I_prefetch_useful 0
Core_0_L1I_prefetch_useless 0
Core_0_L1I_prefetch_late 0
Core_0_L1I_average_miss_latency 160.90909

Core_0_L1I_rq_access 10000000
Core_0_L1I_rq_forward 0
Core_0_L1I_rq_merged 6559097
Core_0_L1I_rq_to_cache 3440903
Core_0_L1I_rq_full 0

Core_0_L1I_wq_access 0
Core_0_L1I_wq_forward 0
Core_0_L1I_wq_merged 0
Core_0_L1I_wq_to_cache 0
Core_0_L1I_wq_full 0

Core_0_L1I_pq_access 0
Core_0_L1I_pq_forward 0
Core_0_L1I_pq_merged 0
Core_0_L1I_pq_to_cache 0
Core_0_L1I_pq_full 0

Core_0_L1I_acc_epochs 10036
Core_0_L1I_acc_level_0 10036
Core_0_L1I_acc_level_1 0
Core_0_L1I_acc_level_2 0
Core_0_L1I_acc_level_3 0
Core_0_L1I_acc_level_4 0
Core_0_L1I_acc_level_5 0
Core_0_L1I_acc_level_6 0
Core_0_L1I_acc_level_7 0
Core_0_L1I_acc_level_8 0
Core_0_L1I_acc_level_9 0

Core_0_L2C_total_access 804012
Core_0_L2C_total_hit 540829
Core_0_L2C_total_miss 263183
Core_0_L2C_loads 263174
Core_0_L2C_load_hit 190311
Core_0_L2C_load_miss 72863
Core_0_L2C_RFOs 4
Core_0_L2C_RFO_hit 0
Core_0_L2C_RFO_miss 4
Core_0_L2C_prefetches 442648
Core_0_L2C_prefetch_hit 252332
Core_0_L2C_prefetch_miss 190316
Core_0_L2C_writebacks 98186
Core_0_L2C_writeback_hit 98186
Core_0_L2C_writeback_miss 0
Core_0_L2C_prefetch_requested 1470057
Core_0_L2C_prefetch_dropped 0
Core_0_L2C_prefetch_issued 1470057
Core_0_L2C_prefetch_filled 212695
Core_0_L2C_prefetch_useful 212682
Core_0_L2C_prefetch_useless 13
Core_0_L2C_prefetch_late 60493
Core_0_L2C_average_miss_latency 168.09866

Core_0_L2C_rq_access 263179
Core_0_L2C_rq_forward 0
Core_0_L2C_rq_merged 0
Core_0_L2C_rq_to_cache 263179
Core_0_L2C_rq_full 0

Core_0_L2C_wq_access 98187
Core_0_L2C_wq_forward 0
Core_0_L2C_wq_merged 0
Core_0_L2C_wq_to_cache 98187
Core_0_L2C_wq_full 0

Core_0_L2C_pq_access 1470057
Core_0_L2C_pq_forward 0
Core_0_L2C_pq_merged 310437
Core_0_L2C_pq_to_cache 1159620
Core_0_L2C_pq_full 0

Core_0_L2C_acc_epochs 10036
Core_0_L2C_acc_level_0 1
Core_0_L2C_acc_level_1 0
Core_0_L2C_acc_level_2 2
Core_0_L2C_acc_level_3 12
Core_0_L2C_acc_level_4 26
Core_0_L2C_acc_level_5 17
Core_0_L2C_acc_level_6 22
Core_0_L2C_acc_level_7 79
Core_0_L2C_acc_level_8 300
Core_0_L2C_acc_level_9 9577

Core_0_LLC_total_access 357784
Core_0_LLC_total_hit 31172
Core_0_LLC_total_miss 326612
Core_0_LLC_loads 12371
Core_0_LLC_load_hit 0
Core_0_LLC_load_miss 12371
Core_0_LLC_RFOs 4
Core_0_LLC_RFO_hit 0
Core_0_LLC_RFO_miss 4
Core_0_LLC_prefetches 250809
Core_0_LLC_prefetch_hit 0
Core_0_LLC_prefetch_miss 250809
Core_0_LLC_writebacks 94600
Core_0_LLC_writeback_hit 31172
Core_0_LLC_writeback_miss 63428
Core_0_LLC_prefetch_requested 0
Core_0_LLC_prefetch_dropped 0
Core_0_LLC_prefetch_issued 0
Core_0_LLC_prefetch_filled 273188
Core_0_LLC_prefetch_useful 0
Core_0_LLC_prefetch_useless 272454
Core_0_LLC_prefetch_late 0
Core_0_LLC_average_miss_latency 132.06606

Core_0_LLC_rq_access 12375
Core_0_LLC_rq_forward 0
Core_0_LLC_rq_merged 0
Core_0_LLC_rq_to_cache 12375
Core_0_LLC_rq_full 0

Core_0_LLC_wq_access 94602
Core_0_LLC_wq_forward 0
Core_0_LLC_wq_merged 0
Core_0_LLC_wq_to_cache 94602
Core_0_LLC_wq_full 0

Core_0_LLC_pq_access 273190
Core_0_LLC_pq_forward 0
Core_0_LLC_pq_merged 0
Core_0_LLC_pq_to_cache 273190
Core_0_LLC_pq_full 0

Core_0_LLC_acc_epochs 10434
Core_0_LLC_acc_level_0 10434
Core_0_LLC_acc_level_1 0
Core_0_LLC_acc_level_2 0
Core_0_LLC_acc_level_3 0
Core_0_LLC_acc_level_4 0
Core_0_LLC_acc_level_5 0
Core_0_LLC_acc_level_6 0
Core_0_LLC_acc_level_7 0
Core_0_LLC_acc_level_8 0
Core_0_LLC_acc_level_9 0

Core_0_major_page_fault 0
Core_0_minor_page_fault 4475

scooby_st_lookup 285906
scooby_st_hit 281429
scooby_st_evict 4413
scooby_st_insert 4477
scooby_st_streaming 0

scooby_predict_called 285906
scooby_predict_out_of_bounds 4555
scooby_predict_action_1 280947
scooby_predict_issue_action_1 280683
scooby_predict_hit_action_1 264
scooby_predict_out_of_bounds_action_1 4462
scooby_predict_action_3 35
scooby_predict_issue_action_3 35
scooby_predict_hit_action_3 0
scooby_predict_out_of_bounds_action_3 1
scooby_predict_action_4 29
scooby_predict_issue_action_4 29
scooby_predict_hit_action_4 0
scooby_predict_out_of_bounds_action_4 0
scooby_predict_action_5 35
scooby_predict_issue_action_5 35
scooby_predict_hit_action_5 0
scooby_predict_out_of_bounds_action_5 1
scooby_predict_action_10 35
scooby_predict_issue_action_10 35
scooby_predict_hit_action_10 0
scooby_predict_out_of_bounds_action_10 10
scooby_predict_action_11 27
scooby_predict_issue_action_11 27
scooby_predict_hit_action_11 0
scooby_predict_out_of_bounds_action_11 6
scooby_predict_action_12 30
scooby_predict_issue_action_12 30
scooby_predict_hit_action_12 0
scooby_predict_out_of_bounds_action_12 4
scooby_predict_action_22 25
scooby_predict_issue_action_22 25
scooby_predict_hit_action_22 0
scooby_predict_out_of_bounds_action_22 17
scooby_predict_action_23 22
scooby_predict_issue_action_23 22
scooby_predict_hit_action_23 0
scooby_predict_out_of_bounds_action_23 9
scooby_predict_action_30 14
scooby_predict_issue_action_30 14
scooby_predict_hit_action_30 0
scooby_predict_out_of_bounds_action_30 26
scooby_predict_action_32 13
scooby_predict_issue_action_32 13
scooby_predict_hit_action_32 0
scooby_predict_out_of_bounds_action_32 16
scooby_predict_action_-1 39
scooby_predict_issue_action_-1 0
scooby_predict_hit_action_-1 39
scooby_predict_out_of_bounds_action_-1 0
scooby_predict_action_-3 31
scooby_predict_issue_action_-3 1
scooby_predict_hit_action_-3 30
scooby_predict_out_of_bounds_action_-3 2
scooby_predict_action_-6 29
scooby_predict_issue_action_-6 1
scooby_predict_hit_action_-6 28
scooby_predict_out_of_bounds_action_-6 1
scooby_predict_action_0 40
scooby_predict_issue_action_0 0
scooby_predict_hit_action_0 0
scooby_predict_out_of_bounds_action_0 0
scooby_predict_multi_deg_called 267262
scooby_predict_predicted 1470057
scooby_predict_multi_deg 1189107
scooby_predict_multi_deg_2 262815
scooby_predict_multi_deg_3 249419
scooby_predict_multi_deg_4 244966
scooby_predict_multi_deg_5 218177
scooby_predict_multi_deg_6 213730
scooby_predict_multi_deg_7 0
scooby_predict_multi_deg_8 0
scooby_predict_multi_deg_9 0
scooby_predict_multi_deg_10 0
scooby_predict_multi_deg_11 0
scooby_predict_multi_deg_12 0
scooby_predict_multi_deg_13 0
scooby_predict_multi_deg_14 0
scooby_predict_multi_deg_15 0
scooby_predict_multi_deg_16 0

scooby_selected_deg_1 13688
scooby_selected_deg_2 8937
scooby_selected_deg_3 0
scooby_selected_deg_4 22335
scooby_selected_deg_5 0
scooby_selected_deg_6 235990
scooby_selected_deg_7 0
scooby_selected_deg_8 0
scooby_selected_deg_9 0
scooby_selected_deg_10 0
scooby_selected_deg_11 0
scooby_selected_deg_12 0
scooby_selected_deg_13 0
scooby_selected_deg_14 0
scooby_selected_deg_15 0
scooby_selected_deg_16 0

scooby_state_401442|27|1 2918,0,0,1,0,1,0,0,2,0,2,1,0,0,0,2925,
scooby_state_401442|18|1 2920,1,1,0,0,0,1,0,0,0,1,1,0,0,0,2925,
scooby_state_401442|34|1 2921,0,1,0,0,0,1,0,0,0,0,0,0,0,2,2925,
scooby_state_401442|15|1 2922,0,0,1,0,0,0,1,0,0,0,0,0,1,0,2925,
scooby_state_401442|8|1 2919,0,0,0,2,1,1,1,0,1,0,0,0,0,0,2925,
scooby_state_401442|60|1 2917,2,0,0,1,1,0,1,1,2,0,0,0,0,0,2925,
scooby_state_401442|32|1 2920,0,0,0,1,0,0,0,1,0,0,1,1,0,1,2925,
scooby_state_401442|43|1 2916,1,2,1,0,0,0,0,0,1,3,0,0,0,1,2925,
scooby_state_401442|6|1 2918,0,0,0,2,0,0,1,1,0,0,1,1,0,1,2925,
scooby_state_401442|33|1 2921,1,1,0,0,0,0,0,0,1,0,0,0,1,0,2925,
scooby_state_401442|51|1 2919,0,0,1,1,1,1,0,1,0,0,1,0,0,0,2925,
scooby_state_401442|29|1 2917,1,1,0,1,2,0,1,0,0,0,1,1,0,0,2925,
scooby_state_401442|42|1 2920,1,1,0,0,1,1,0,0,0,0,1,0,0,0,2925,
scooby_state_401442|14|1 2922,0,0,0,0,0,0,0,0,0,0,0,0,0,3,2925,
scooby_state_401442|35|1 2923,0,1,1,0,0,0,0,0,0,0,0,0,0,0,2925,
scooby_state_401442|12|1 2922,0,0,1,0,1,0,0,0,0,0,1,0,0,0,2925,
scooby_state_401442|36|1 2919,1,0,1,1,1,1,1,0,0,0,0,0,0,0,2925,
scooby_state_401442|41|1 2917,1,1,0,0,2,0,2,0,1,1,0,0,0,0,2925,
scooby_state_401442|52|1 2921,1,1,0,0,0,0,0,0,0,0,1,0,0,1,2925,
scooby_state_401442|61|1 2922,1,0,0,0,0,0,0,0,1,0,1,0,0,0,2925,
scooby_state_401442|57|1 2921,0,0,0,1,1,0,0,0,0,0,0,0,1,1,2925,
scooby_state_401442|38|1 2918,0,0,2,1,0,0,0,0,1,1,0,0,0,2,2925,
scooby_state_401442|16|1 2918,0,1,1,1,0,1,0,1,0,0,0,0,0,2,2925,
scooby_state_401442|0|0 2921,0,0,0,0,0,2,1,0,0,0,0,1,0,0,2925,
scooby_state_401442|63|1 2922,0,0,0,0,0,1,0,0,1,0,0,0,1,0,2925,
scooby_state_401442|19|1 2916,0,0,1,1,0,1,0,0,0,1,1,1,2,1,2925,
scooby_state_401442|40|1 2921,0,0,0,0,0,0,1,2,0,1,0,0,0,0,2925,
scooby_state_401442|62|1 2920,0,0,0,1,0,0,0,1,3,0,0,0,0,0,2925,
scooby_state_401442|24|1 2919,0,3,0,0,0,0,0,1,0,0,1,0,0,1,2925,
scooby_state_401442|10|1 2917,1,0,0,1,0,1,1,2,0,1,0,0,1,0,2925,
scooby_state_401442|48|1 2917,1,0,0,1,2,1,1,0,1,1,0,0,0,0,2925,
scooby_state_401442|26|1 2921,0,0,2,0,0,0,0,1,0,0,0,1,0,0,2925,
scooby_state_401442|20|1 2916,1,1,1,1,1,0,0,1,0,0,1,0,0,2,2925,
scooby_state_401442|11|1 2921,0,0,1,0,0,0,0,0,1,1,0,0,1,0,2925,
scooby_state_401442|28|1 2920,1,0,0,0,0,1,0,0,1,1,0,0,1,0,2925,
scooby_state_401442|23|1 2922,0,0,0,0,0,0,0,1,1,1,0,0,0,0,2925,
scooby_state_401442|17|1 2921,0,0,0,0,0,0,0,0,2,0,0,0,1,1,2925,
scooby_state_401442|7|1 2921,0,0,0,1,2,0,0,0,0,0,0,1,0,0,2925,
scooby_state_401442|53|1 2919,1,0,0,0,0,0,1,1,1,1,0,1,0,0,2925,
scooby_state_401442|30|1 2922,0,0,0,1,0,0,0,0,0,0,0,1,1,0,2925,
scooby_state_401442|21|1 2923,0,0,0,0,0,0,0,0,1,0,0,1,0,0,2925,
scooby_state_401442|59|1 2918,0,0,0,1,2,0,0,0,0,0,1,1,2,0,2925,
scooby_state_401442|31|1 2919,2,2,0,0,0,0,0,1,0,0,0,0,0,1,2925,
scooby_state_401442|55|1 2915,1,1,0,0,0,0,2,0,2,1,0,1,1,1,2925,
scooby_state_401442|58|1 2918,1,0,1,1,0,0,1,0,0,0,2,0,0,1,2925,
scooby_state_401442|50|1 2922,0,0,0,1,0,0,2,0,0,0,0,0,0,0,2925,
scooby_state_401442|37|1 2919,0,0,2,2,0,0,0,0,1,0,0,0,1,0,2925,
scooby_state_401442|56|1 2919,1,0,0,0,1,0,2,1,0,1,0,0,0,0,2925,
scooby_state_401442|54|1 2916,0,1,1,1,0,1,2,0,0,0,0,2,0,1,2925,
scooby_state_401442|47|1 2918,1,1,1,1,0,1,0,0,2,0,0,0,0,0,2925,
scooby_state_401442|9|1 2920,1,0,1,0,0,0,3,0,0,0,0,0,0,0,2925,
scooby_state_401442|46|1 2921,1,0,0,1,0,1,0,0,0,0,1,0,0,0,2925,
scooby_state_401442|45|1 2920,0,0,0,2,0,0,1,1,0,0,0,0,1,0,2925,
scooby_state_401442|13|1 2921,0,0,0,1,0,1,1,0,0,1,0,0,0,0,2925,
scooby_state_401442|25|1 2921,1,1,1,0,0,0,0,0,0,0,0,0,0,1,2925,
scooby_state_401442|44|1 2921,0,0,0,0,1,0,1,0,0,0,1,0,1,0,2925,
scooby_state_401442|49|1 2918,1,0,0,0,0,0,0,1,3,0,0,0,1,1,2925,
scooby_state_401442|22|1 2923,0,0,0,0,1,1,0,0,0,0,0,0,0,0,2925,
scooby_state_401442|39|1 2918,1,0,0,1,1,2,0,0,0,0,1,0,0,1,2925,
scooby_state_401442|2|1 2924,0,0,0,0,0,0,0,0,0,0,0,0,0,0,2924,
scooby_state_401442|3|1 2921,0,0,0,1,0,0,0,0,0,0,0,1,1,0,2924,
scooby_state_401442|4|1 2919,1,0,0,0,1,0,0,1,0,0,0,2,0,0,2924,
scooby_state_401442|5|1 2918,1,0,1,0,0,1,2,0,0,0,1,0,0,0,2924,
scooby_state_401442|1|1 2922,0,0,0,0,0,0,1,0,0,1,0,0,0,0,2924,
scooby_state_4011ae|2|1 1539,0,1,2,0,0,0,0,0,1,0,0,0,0,0,1543,
scooby_state_4011ae|0|0 1541,0,0,0,0,0,0,0,1,0,0,0,1,0,0,1543,
scooby_state_4011ae|3|1 1540,0,0,1,0,0,0,1,0,0,0,0,0,0,1,1543,
scooby_state_4011ae|1|1 1542,0,0,0,1,0,0,0,0,0,0,0,0,0,0,1543,
scooby_state_4011ae|4|1 1540,0,0,1,0,0,0,0,0,1,0,0,0,0,1,1543,
scooby_state_4011ae|25|1 1538,0,0,1,1,1,0,0,0,0,0,0,0,0,1,1542,
scooby_state_4011ae|63|1 1540,0,0,0,0,0,1,1,0,0,0,0,0,0,0,1542,
scooby_state_4011ae|34|1 1535,1,0,1,1,0,1,1,0,1,0,0,0,0,1,1542,
scooby_state_4011ae|24|1 1542,0,0,0,0,0,0,0,0,0,0,0,0,0,0,1542,
scooby_state_4011ae|32|1 1541,0,0,0,0,0,1,0,0,0,0,0,0,0,0,1542,
scooby_state_4011ae|37|1 1539,0,0,2,0,0,0,0,1,0,0,0,0,0,0,1542,
scooby_state_4011ae|22|1 1541,0,0,0,0,1,0,0,0,0,0,0,0,0,0,1542,
scooby_state_4011ae|50|1 1540,0,0,0,0,0,0,0,0,1,0,0,0,1,0,1542,
scooby_state_4011ae|33|1 1533,1,0,0,0,2,2,0,0,0,1,1,1,1,0,1542,
scooby_state_4011ae|19|1 1540,0,0,0,0,0,0,1,0,1,0,0,0,0,0,1542,
scooby_state_4011ae|31|1 1540,1,0,0,0,0,0,0,0,0,1,0,0,0,0,1542,
scooby_state_4011ae|30|1 1541,0,0,0,0,0,0,0,0,0,1,0,0,0,0,1542,
scooby_state_4011ae|26|1 1541,0,0,0,0,0,1,0,0,0,0,0,0,0,0,1542,
scooby_state_4011ae|5|1 1540,0,0,0,0,0,0,0,0,0,0,1,1,0,0,1542,
scooby_state_4011ae|7|1 1540,0,0,0,0,0,1,0,0,1,0,0,0,0,0,1542,
scooby_state_4011ae|20|1 1539,1,0,1,0,0,0,0,0,0,0,1,0,0,0,1542,
scooby_state_4011ae|39|1 1538,0,0,0,0,0,0,0,1,1,1,0,1,0,0,1542,
scooby_state_4011ae|17|1 1541,0,0,0,0,0,0,0,0,0,0,0,1,0,0,1542,
scooby_state_4011ae|9|1 1540,0,1,0,0,0,0,0,1,0,0,0,0,0,0,1542,
scooby_state_4011ae|40|1 1539,0,1,0,0,1,0,0,0,0,1,0,0,0,0,1542,
scooby_state_4011ae|10|1 1539,0,0,0,1,0,0,1,0,0,0,0,0,0,1,1542,
scooby_state_4011ae|11|1 1540,0,0,0,0,0,0,0,0,0,0,0,0,0,2,1542,
scooby_state_4011ae|27|1 1539,1,1,0,0,0,0,0,0,0,0,0,1,0,0,1542,
scooby_state_4011ae|14|1 1537,0,0,0,0,0,1,1,0,0,1,0,0,1,1,1542,
scooby_state_4011ae|13|1 1542,0,0,0,0,0,0,0,0,0,0,0,0,0,0,1542,
scooby_state_4011ae|42|1 1541,1,0,0,0,0,0,0,0,0,0,0,0,0,0,1542,
scooby_state_4011ae|45|1 1537,0,0,1,1,1,0,0,0,0,0,0,1,0,1,1542,
scooby_state_4011ae|16|1 1539,1,0,0,0,0,0,0,1,0,0,0,1,0,0,1542,
scooby_state_4011ae|36|1 1541,0,0,0,0,0,0,0,0,1,0,0,0,0,0,1542,
scooby_state_4011ae|55|1 1540,0,1,0,0,0,0,0,0,0,0,0,1,0,0,1542,
scooby_state_4011ae|8|1 1535,0,0,0,0,0,0,0,1,0,0,4,1,1,0,1542,
scooby_state_4011ae|48|1 1540,0,0,1,0,0,0,0,0,0,0,0,0,1,0,1542,
scooby_state_4011ae|12|1 1538,0,0,0,0,0,1,1,0,0,0,1,0,1,0,1542,
scooby_state_4011ae|21|1 1537,0,0,1,1,0,1,0,0,0,0,1,1,0,0,1542,
scooby_state_4011ae|47|1 1541,0,0,0,0,0,0,0,0,0,0,1,0,0,0,1542,
scooby_state_4011ae|43|1 1540,0,0,0,0,0,0,0,0,0,0,1,1,0,0,1542,
scooby_state_4011ae|49|1 1538,0,0,0,0,0,0,1,1,0,1,1,0,0,0,1542,
scooby_state_4011ae|41|1 1539,0,1,0,0,1,1,0,0,0,0,0,0,0,0,1542,
scooby_state_4011ae|6|1 1541,0,0,0,0,0,0,0,0,0,0,0,0,1,0,1542,
scooby_state_4011ae|61|1 1541,0,0,0,0,0,0,1,0,0,0,0,0,0,0,1542,
scooby_state_4011ae|23|1 1540,0,0,0,0,0,0,0,0,0,0,0,2,0,0,1542,
scooby_state_4011ae|46|1 1540,0,1,0,0,0,0,0,0,0,0,0,0,0,1,1542,
scooby_state_4011ae|28|1 1541,0,0,0,0,0,0,0,1,0,0,0,0,0,0,1542,
scooby_state_4011ae|54|1 1539,0,0,0,1,1,0,0,0,0,0,1,0,0,0,1542,
scooby_state_4011ae|62|1 1538,0,0,1,0,0,0,0,0,0,0,1,1,1,0,1542,
scooby_state_4011ae|29|1 1540,0,0,0,0,0,0,0,0,2,0,0,0,0,0,1542,
scooby_state_4011ae|60|1 1539,0,0,0,0,0,0,0,0,1,0,0,0,0,2,1542,
scooby_state_4011ae|59|1 1541,0,0,0,0,0,0,0,0,0,0,0,0,0,1,1542,
scooby_state_4011ae|38|1 1539,0,0,0,0,0,0,0,0,1,0,2,0,0,0,1542,
scooby_state_4011ae|58|1 1540,0,0,0,0,0,0,0,1,0,1,0,0,0,0,1542,
scooby_state_4011ae|57|1 1538,0,0,0,1,0,1,0,0,0,0,0,0,1,1,1542,
scooby_state_4011ae|56|1 1539,0,1,0,2,0,0,0,0,0,0,0,0,0,0,1542,
scooby_state_4011ae|15|1 1541,0,0,0,0,0,0,0,0,0,0,1,0,0,0,1542,
scooby_state_4011ae|53|1 1541,0,0,0,1,0,0,0,0,0,0,0,0,0,0,1542,
scooby_state_4011ae|52|1 1541,0,0,0,0,0,0,0,0,0,0,1,0,0,0,1542,
scooby_state_4011ae|35|1 1537,0,0,0,0,0,0,2,0,0,1,0,1,1,0,1542,
scooby_state_4011ae|51|1 1540,0,0,0,1,0,0,0,0,0,0,1,0,0,0,1542,
scooby_state_4011ae|18|1 1539,0,0,0,1,1,0,0,0,0,0,0,0,1,0,1542,
scooby_state_4011ae|44|1 1542,0,0,0,0,0,0,0,0,0,0,0,0,0,0,1542,
scooby_state_4008d5|54|0 1,0,0,0,0,0,0,0,0,0,0,0,0,0,0,1,
scooby_state_404b41|45|1 1,0,0,0,0,0,0,0,0,0,0,0,0,0,0,1,
scooby_state_400580|22|0 1,0,0,0,0,0,0,0,0,0,0,0,0,0,0,1,
scooby_state_404071|1|0 1,0,0,0,0,0,0,0,0,0,0,0,0,0,0,1,
scooby_state_405440|17|1 1,0,0,0,0,0,0,0,0,0,0,0,0,0,0,1,
scooby_state_401150|5|-13 1,0,0,0,0,0,0,0,0,0,0,0,0,0,0,1,
scooby_state_405430|16|0 1,0,0,0,0,0,0,0,0,0,0,0,0,0,0,1,
scooby_state_40146b|47|0 1,0,0,0,0,0,0,0,0,0,0,0,0,0,0,1,
scooby_state_405435|55|1 1,0,0,0,0,0,0,0,0,0,0,0,0,0,0,1,
scooby_state_401181|6|1 1,0,0,0,0,0,0,0,0,0,0,0,0,0,0,1,
scooby_state_401442|5|0 1,0,0,0,0,0,0,0,0,0,0,0,0,0,0,1,
scooby_state_404b80|46|1 1,0,0,0,0,0,0,0,0,0,0,0,0,0,0,1,
scooby_state_401483|18|0 1,0,0,0,0,0,0,0,0,0,0,0,0,0,0,1,
scooby_state_4008d0|35|13 1,0,0,0,0,0,0,0,0,0,0,0,0,0,0,1,
scooby_state_404b00|44|43 1,0,0,0,0,0,0,0,0,0,0,0,0,0,0,1,
scooby_state_40145d|17|0 1,0,0,0,0,0,0,0,0,0,0,0,0,0,0,1,
scooby_state_401438|16|-1 1,0,0,0,0,0,0,0,0,0,0,0,0,0,0,1,
scooby_state_40145d|52|0 1,0,0,0,0,0,0,0,0,0,0,0,0,0,0,1,

scooby_action_0_deg_dist 0,40,0,0,0,0,0,0,0,0,0,0,0,0,0,0,
scooby_action_4_deg_dist 0,29,0,0,0,0,0,0,0,0,0,0,0,0,0,0,
scooby_action_32_deg_dist 0,29,0,0,0,0,0,0,0,0,0,0,0,0,0,0,
scooby_action_3_deg_dist 0,36,0,0,0,0,0,0,0,0,0,0,0,0,0,0,
scooby_action_5_deg_dist 0,36,0,0,0,0,0,0,0,0,0,0,0,0,0,0,
scooby_action_1_deg_dist 0,13421,8938,0,22343,0,240707,0,0,0,0,0,0,0,0,0,
scooby_action_30_deg_dist 0,40,0,0,0,0,0,0,0,0,0,0,0,0,0,0,
scooby_action_-3_deg_dist 0,33,0,0,0,0,0,0,0,0,0,0,0,0,0,0,
scooby_action_10_deg_dist 0,45,0,0,0,0,0,0,0,0,0,0,0,0,0,0,
scooby_action_-1_deg_dist 0,39,0,0,0,0,0,0,0,0,0,0,0,0,0,0,
scooby_action_23_deg_dist 0,31,0,0,0,0,0,0,0,0,0,0,0,0,0,0,
scooby_action_-6_deg_dist 0,30,0,0,0,0,0,0,0,0,0,0,0,0,0,0,
scooby_action_11_deg_dist 0,33,0,0,0,0,0,0,0,0,0,0,0,0,0,0,
scooby_action_22_deg_dist 0,42,0,0,0,0,0,0,0,0,0,0,0,0,0,0,
scooby_action_12_deg_dist 0,34,0,0,0,0,0,0,0,0,0,0,0,0,0,0,

scooby_track_called 285906
scooby_track_same_address 361
scooby_track_evict 285289

scooby_reward_demand_called 285906
scooby_reward_demand_pt_not_found 4972
scooby_reward_demand_pt_found 280934
scooby_reward_demand_pt_found_total 280934
scooby_reward_demand_has_reward 0
scooby_reward_train_called 55
scooby_reward_assign_reward_called 285544
scooby_reward_no_pref 40
scooby_reward_incorrect 15
scooby_reward_correct_untimely 243730
scooby_reward_correct_timely 37204
scooby_reward_out_of_bounds 4555
scooby_reward_tracker_hit 0

scooby_reward_none_low_bw 40
scooby_reward_none_high_bw 0
scooby_reward_incorrect_low_bw 15
scooby_reward_incorrect_high_bw 0
scooby_reward_correct_untimely_low_bw 243730
scooby_reward_correct_untimely_high_bw 0
scooby_reward_correct_timely_low_bw 37204
scooby_reward_correct_timely_high_bw 0
scooby_reward_out_of_bounds_low_bw 4555
scooby_reward_out_of_bounds_high_bw 0
scooby_reward_tracker_hit_low_bw 0
scooby_reward_tracker_hit_high_bw 0

scooby_reward_1 0,13,243705,36964,4462,0,
scooby_reward_3 0,0,11,24,1,0,
scooby_reward_4 0,0,7,22,0,0,
scooby_reward_5 0,0,5,30,1,0,
scooby_reward_10 0,0,1,34,10,0,
scooby_reward_11 0,0,0,27,6,0,
scooby_reward_12 0,0,1,29,4,0,
scooby_reward_22 0,0,0,25,17,0,
scooby_reward_23 0,0,0,22,9,0,
scooby_reward_30 0,0,0,14,26,0,
scooby_reward_32 0,0,0,13,16,0,
scooby_reward_-1 0,0,0,0,0,0,
scooby_reward_-3 0,1,0,0,2,0,
scooby_reward_-6 0,1,0,0,1,0,
scooby_reward_0 40,0,0,0,0,0,

scooby_train_called 285288
scooby_train_compute_reward 55

scooby_register_fill_called 212695
scooby_register_fill_set 37216
scooby_register_fill_set_total 37216

scooby_register_prefetch_hit_called 346839
scooby_register_prefetch_hit_set 179277
scooby_register_prefetch_hit_set_total 179277

scooby_pref_issue_scooby 1470057

learning_engine_featurewise.action.called 285906
learning_engine_featurewise.action.explore 529
learning_engine_featurewise.action.exploit 285377
learning_engine_featurewise.action.fallback 0
learning_engine_featurewise.action.dyn_fallback_saved_bw 0
learning_engine_featurewise.action.dyn_fallback_saved_bw_acc 11
learning_engine_featurewise.action.index_1_explored 32
learning_engine_featurewise.action.index_1_exploited 285377
learning_engine_featurewise.action.index_3_explored 36
learning_engine_featurewise.action.index_3_exploited 0
learning_engine_featurewise.action.index_4_explored 29
learning_engine_featurewise.action.index_4_exploited 0
learning_engine_featurewise.action.index_5_explored 36
learning_engine_featurewise.action.index_5_exploited 0
learning_engine_featurewise.action.index_10_explored 45
learning_engine_featurewise.action.index_10_exploited 0
learning_engine_featurewise.action.index_11_explored 33
learning_engine_featurewise.action.index_11_exploited 0
learning_engine_featurewise.action.index_12_explored 34
learning_engine_featurewise.action.index_12_exploited 0
learning_engine_featurewise.action.index_22_explored 42
learning_engine_featurewise.action.index_22_exploited 0
learning_engine_featurewise.action.index_23_explored 31
learning_engine_featurewise.action.index_23_exploited 0
learning_engine_featurewise.action.index_30_explored 40
learning_engine_featurewise.action.index_30_exploited 0
learning_engine_featurewise.action.index_32_explored 29
learning_engine_featurewise.action.index_32_exploited 0
learning_engine_featurewise.action.index_-1_explored 39
learning_engine_featurewise.action.index_-1_exploited 0
learning_engine_featurewise.action.index_-3_explored 33
learning_engine_featurewise.action.index_-3_exploited 0
learning_engine_featurewise.action.index_-6_explored 30
learning_engine_featurewise.action.index_-6_exploited 0
learning_engine_featurewise.action.index_0_explored 40
learning_engine_featurewise.action.index_0_exploited 0
learning_engine_featurewise.learn.called 285288
learning_engine_featurewise.learn.su_skip_PC 0
learning_engine_featurewise.learn.su_skip_PC_Delta 0

learning_engine_featurewise.q_value_histogram.bucket_0 0
learning_engine_featurewise.q_value_histogram.bucket_1 0
learning_engine_featurewise.q_value_histogram.bucket_2 0
learning_engine_featurewise.q_value_histogram.bucket_3 0
learning_engine_featurewise.q_value_histogram.bucket_4 593
learning_engine_featurewise.q_value_histogram.bucket_5 150
learning_engine_featurewise.q_value_histogram.bucket_6 284634
learning_engine_featurewise.q_value_histogram.bucket_7 0

learning_engine_featurewise.consensus.total 285377
learning_engine_featurewise.consensus.feature_align_PC 285371
learning_engine_featurewise.consensus.feature_align_PC_ratio 1.00
learning_engine_featurewise.consensus.feature_align_PC_Delta 285377
learning_engine_featurewise.consensus.feature_align_PC_Delta_ratio 1.00
learning_engine_featurewise.consensus.feature_align_all 285371
learning_engine_featurewise.consensus.feature_align_all_ratio 1.00

learning_engine_featurewise.feature_PC_min_weight 1000000.00000000
learning_engine_featurewise.feature_PC_max_weight 0.00000000
learning_engine_featurewise.feature_PC_Delta_min_weight 1000000.00000000
learning_engine_featurewise.feature_PC_Delta_max_weight 0.00000000
unique_pcs 18
unique_pages 4475
unique_trigger_pcs 9
total_bitmaps_seen 0
unique_bitmaps_seen 0

scooby_bw_epochs 41733
scooby_bw_level_0 4162
scooby_bw_level_1 9182
scooby_bw_level_2 11012
scooby_bw_level_3 17377

scooby_ipc_epochs 0
scooby_ipc_level_0 0
scooby_ipc_level_1 0
scooby_ipc_level_2 0
scooby_ipc_level_3 0

scooby_cache_acc_epochs 10036
scooby_cache_acc_level_0 1
scooby_cache_acc_level_1 0
scooby_cache_acc_level_2 2
scooby_cache_acc_level_3 12
scooby_cache_acc_level_4 26
scooby_cache_acc_level_5 17
scooby_cache_acc_level_6 22
scooby_cache_acc_level_7 79
scooby_cache_acc_level_8 300
scooby_cache_acc_level_9 9577

Channel_0_RQ_row_buffer_hit 206275
Channel_0_RQ_row_buffer_miss 56910
Channel_0_WQ_row_buffer_hit 16949
Channel_0_WQ_row_buffer_miss 45602
Channel_0_WQ_full 0
Channel_0_dbus_congested 210923

avg_congested_cycle 11

DRAM_bw_pochs 41733
DRAM_bw_level_0 4162
DRAM_bw_level_1 9182
DRAM_bw_level_2 11012
DRAM_bw_level_3 17377
