Original cmd-> /cluster/home/vlnitu/CA-Lab4-24-vlnitu/Pythia/bin/perceptron-no-multi-no-ship-1core --warmup_instructions=1000000 --simulation_instructions=10000000 --l2c_prefetcher_types=scooby --config=/cluster/home/vlnitu/CA-Lab4-24-vlnitu/Pythia/config/pythia.ini --mail-type=BEGIN,END  -traces /cluster/home/vlnitu/CA-Lab4-24-vlnitu/Pythia/traces/470.lbm-1274B.champsimtrace.xz
*************************************************
   ChampSim Multicore Out-of-Order Simulator
   Last compiled: Nov 19 2024 20:10:11
*************************************************
parsing config file: /cluster/home/vlnitu/CA-Lab4-24-vlnitu/Pythia/config/pythia.ini
unable to parse section: , name: mail-type, value: BEGIN,END

trace_0 /cluster/home/vlnitu/CA-Lab4-24-vlnitu/Pythia/traces/470.lbm-1274B.champsimtrace.xz
adding L2C_PREFETCHER: Scooby
Initialize SHIP state
warmup_instructions 1000000
simulation_instructions 10000000
champsim_seed 272
measure_ipc 0
measure_ipc_epoch 1000
measure_dram_bw 1
measure_dram_bw_epoch 256
measure_cache_acc 1
measure_cache_acc_epoch 1024
l1d_perfect 0
l2c_perfect 0
llc_perfect 0
l1d_semi_perfect 0
l2c_semi_perfect 0
llc_semi_perfect 0
semi_perfect_cache_page_buffer_size 64

num_cpus 1
cpu_freq 4000
dram_io_freq 2400
page_size 4096
block_size 64
max_read_per_cycle 8
max_fill_per_cycle 1
dram_channels 1
log2_dram_channels 0
dram_ranks 1
dram_banks 8
dram_rows 65536
dram_columns 128
dram_row_size 8
dram_size 4096
dram_pages 1048576

fetch_width 6
decode_width 6
exec_width 4
lq_width 2
sq_width 2
retire_width 4
scheduler_size 128
branch_mispredict_penalty 20
rob_size 256
lq_size 72
sq_size 56
num_instr_destinations_sparc 4
num_instr_destinations 2
num_instr_sources 4

itlb_set 16
itlb_way 8
itlb_rq_size 16
itlb_wq_size 16
itlb_pq_size 0
itlb_mshr_size 8
itlb_latency 1

dtlb_set 16
dtlb_way 4
dtlb_rq_size 16
dtlb_wq_size 16
dtlb_pq_size 0
dtlb_mshr_size 8
dtlb_latency 1

stlb_set 128
stlb_way 12
stlb_rq_size 32
stlb_wq_size 32
stlb_pq_size 0
stlb_mshr_size 16
stlb_latency 8

l1i_size 32
l1i_set 64
l1i_way 8
l1i_rq_size 64
l1i_wq_size 64
l1i_pq_size 8
l1i_mshr_size 8
l1i_latency 1

l1d_size 32
l1d_set 64
l1d_way 8
l1d_rq_size 64
l1d_wq_size 64
l1d_pq_size 8
l1d_mshr_size 16
l1d_latency 4

l2c_size 256
l2c_set 512
l2c_way 8
l2c_rq_size 32
l2c_wq_size 32
l2c_pq_size 32
l2c_mshr_size 32
l2c_latency 10

llc_size 2048
llc_set 2048
llc_way 16
llc_rq_size 32
llc_wq_size 32
llc_pq_size 32
llc_mshr_size 64
llc_latency 20

dram_channel_width 8
dram_wq_size 64
dram_rq_size 64
tRP 15
tRCD 15
tCAS 12.5
dram_dbus_turn_around_time 30
dram_write_high_wm 56
dram_write_low_wm 48
min_dram_writes_per_switch 16
dram_mtps 2400
dram_dbus_return_time 13

scooby_alpha 0.0065088
scooby_gamma 0.556301
scooby_epsilon 0.00182284
scooby_state_num_bits 10
scooby_max_states 1024
scooby_seed 200
scooby_policy EGreedy
scooby_learning_type SARSA
scooby_actions 1,3,4,5,10,11,12,22,23,30,32,-1,-3,-6,0,
scooby_max_actions 15
scooby_pt_size 256
scooby_st_size 64
scooby_max_pcs 5
scooby_max_offsets 5
scooby_max_deltas 5
scooby_reward_none -4
scooby_reward_incorrect -8
scooby_reward_correct_untimely 12
scooby_reward_correct_timely 20
scooby_brain_zero_init 0
scooby_enable_reward_all 0
scooby_enable_track_multiple 0
scooby_enable_reward_out_of_bounds 1
scooby_reward_out_of_bounds -12
scooby_state_type 1
scooby_state_hash_type 11
scooby_access_debug 0
scooby_print_access_debug 0
scooby_print_access_debug_pc deadbeef
scooby_print_access_debug_pc_count 0
scooby_print_trace 0
scooby_enable_state_action_stats 1
scooby_enable_reward_tracker_hit 0
scooby_reward_tracker_hit -2
scooby_enable_featurewise_engine 1
scooby_pref_degree 1
scooby_enable_dyn_degree 1
scooby_max_to_avg_q_thresholds 0.5,1,2,
scooby_dyn_degrees 1,2,4,4,
scooby_multi_deg_select_type 2
scooby_last_pref_offset_conf_thresholds 1,3,8,
scooby_dyn_degrees_type2 1,2,4,6,
scooby_action_tracker_size 2
scooby_high_bw_thresh 4
scooby_enable_hbw_reward 1
scooby_reward_hbw_correct_timely 20
scooby_reward_hbw_correct_untimely 12
scooby_reward_hbw_incorrect -14
scooby_reward_hbw_none -2
scooby_reward_hbw_out_of_bounds -12
scooby_reward_hbw_tracker_hit -2
scooby_last_pref_offset_conf_thresholds_hbw 1,3,8,
scooby_dyn_degrees_type2_hbw 1,2,4,6,

le_enable_trace 0
le_trace_interval 0
le_trace_file_name 
le_trace_state 0
le_enable_score_plot 0
le_plot_file_name 
le_plot_actions 
le_enable_action_trace 0
le_action_trace_interval 0
le_action_trace_name 
le_enable_action_plot 0

le_featurewise_active_features PC, PC_Delta
le_featurewise_num_tilings 3,3,
le_featurewise_num_tiles 128,128,
le_featurewise_hash_types 2,2,
le_featurewise_enable_tiling_offset 1,1,
le_featurewise_max_q_thresh 0.5
le_featurewise_enable_action_fallback 1
le_featurewise_feature_weights 1,1,
le_featurewise_enable_dynamic_weight 0
le_featurewise_weight_gradient 0.001
le_featurewise_disable_adjust_weight_all_features_align 1
le_featurewise_selective_update 0
le_featurewise_pooling_type 2
le_featurewise_enable_dyn_action_fallback 1
le_featurewise_bw_acc_check_level 1
le_featurewise_acc_thresh 2
le_featurewise_enable_trace 0
le_featurewise_trace_feature_type 0
le_featurewise_trace_feature 
le_featurewise_trace_interval 0
le_featurewise_trace_record_count 0
le_featurewise_trace_file_name 
le_featurewise_enable_score_plot 0
le_featurewise_plot_actions 
le_featurewise_plot_file_name 


Heartbeat CPU  0 instructions:    1000002 cycles:     368767 heartbeat IPC: 2.71174 cumulative IPC: 2.71174 (Simulation time: 0 hr 0 min 2 sec) 

Warmup complete CPU  0 instructions:    1000002 cycles:     368767 (Simulation time: 0 hr 0 min 2 sec) 

Heartbeat CPU  0 instructions:    2000002 cycles:    1462154 heartbeat IPC: 0.91459 cumulative IPC: 0.91459 (Simulation time: 0 hr 0 min 3 sec) 
Heartbeat CPU  0 instructions:    3000003 cycles:    2826101 heartbeat IPC: 0.73317 cumulative IPC: 0.81389 (Simulation time: 0 hr 0 min 5 sec) 
Heartbeat CPU  0 instructions:    4000000 cycles:    4288579 heartbeat IPC: 0.68377 cumulative IPC: 0.76534 (Simulation time: 0 hr 0 min 7 sec) 
Heartbeat CPU  0 instructions:    5000001 cycles:    5830964 heartbeat IPC: 0.64835 cumulative IPC: 0.73231 (Simulation time: 0 hr 0 min 9 sec) 
Heartbeat CPU  0 instructions:    6000002 cycles:    7337893 heartbeat IPC: 0.66360 cumulative IPC: 0.71745 (Simulation time: 0 hr 0 min 11 sec) 
Heartbeat CPU  0 instructions:    7000001 cycles:    8957079 heartbeat IPC: 0.61759 cumulative IPC: 0.69862 (Simulation time: 0 hr 0 min 13 sec) 
Heartbeat CPU  0 instructions:    8000000 cycles:   10482256 heartbeat IPC: 0.65566 cumulative IPC: 0.69214 (Simulation time: 0 hr 0 min 15 sec) 
Heartbeat CPU  0 instructions:    9000000 cycles:   12047770 heartbeat IPC: 0.63877 cumulative IPC: 0.68499 (Simulation time: 0 hr 0 min 17 sec) 
Heartbeat CPU  0 instructions:   10000000 cycles:   13756469 heartbeat IPC: 0.58524 cumulative IPC: 0.67226 (Simulation time: 0 hr 0 min 19 sec) 
Heartbeat CPU  0 instructions:   11000001 cycles:   15154655 heartbeat IPC: 0.71521 cumulative IPC: 0.67632 (Simulation time: 0 hr 0 min 21 sec) 
Finished CPU 0 instructions: 10000003 cycles: 14785889 cumulative IPC: 0.67632 (Simulation time: 0 hr 0 min 21 sec) 

ChampSim completed all CPUs

[ROI Statistics]
Core_0_instructions 10000003
Core_0_cycles 14785889
Core_0_IPC 0.67632

Core_0_branch_prediction_accuracy 99.79396
Core_0_branch_MPKI 0.02860
Core_0_average_ROB_occupancy_at_mispredict 253.83916

Core_0_L1D_total_access 1613928
Core_0_L1D_total_hit 1144407
Core_0_L1D_total_miss 469521
Core_0_L1D_loads 622614
Core_0_L1D_load_hit 551468
Core_0_L1D_load_miss 71146
Core_0_L1D_RFOs 991314
Core_0_L1D_RFO_hit 592939
Core_0_L1D_RFO_miss 398375
Core_0_L1D_prefetches 0
Core_0_L1D_prefetch_hit 0
Core_0_L1D_prefetch_miss 0
Core_0_L1D_writebacks 0
Core_0_L1D_writeback_hit 0
Core_0_L1D_writeback_miss 0
Core_0_L1D_prefetch_requested 0
Core_0_L1D_prefetch_dropped 0
Core_0_L1D_prefetch_issued 0
Core_0_L1D_prefetch_filled 0
Core_0_L1D_prefetch_useful 0
Core_0_L1D_prefetch_useless 0
Core_0_L1D_prefetch_late 0
Core_0_L1D_average_miss_latency 407.62539

Core_0_L1D_rq_access 1688061
Core_0_L1D_rq_forward 0
Core_0_L1D_rq_merged 1016351
Core_0_L1D_rq_to_cache 638075
Core_0_L1D_rq_full 0

Core_0_L1D_wq_access 1004710
Core_0_L1D_wq_forward 33635
Core_0_L1D_wq_merged 55
Core_0_L1D_wq_to_cache 1004655
Core_0_L1D_wq_full 811

Core_0_L1D_pq_access 0
Core_0_L1D_pq_forward 0
Core_0_L1D_pq_merged 0
Core_0_L1D_pq_to_cache 0
Core_0_L1D_pq_full 0

Core_0_L1D_acc_epochs 14370
Core_0_L1D_acc_level_0 14370
Core_0_L1D_acc_level_1 0
Core_0_L1D_acc_level_2 0
Core_0_L1D_acc_level_3 0
Core_0_L1D_acc_level_4 0
Core_0_L1D_acc_level_5 0
Core_0_L1D_acc_level_6 0
Core_0_L1D_acc_level_7 0
Core_0_L1D_acc_level_8 0
Core_0_L1D_acc_level_9 0

Core_0_L1I_total_access 2402177
Core_0_L1I_total_hit 2402177
Core_0_L1I_total_miss 0
Core_0_L1I_loads 2402177
Core_0_L1I_load_hit 2402177
Core_0_L1I_load_miss 0
Core_0_L1I_RFOs 0
Core_0_L1I_RFO_hit 0
Core_0_L1I_RFO_miss 0
Core_0_L1I_prefetches 0
Core_0_L1I_prefetch_hit 0
Core_0_L1I_prefetch_miss 0
Core_0_L1I_writebacks 0
Core_0_L1I_writeback_hit 0
Core_0_L1I_writeback_miss 0
Core_0_L1I_prefetch_requested 0
Core_0_L1I_prefetch_dropped 0
Core_0_L1I_prefetch_issued 0
Core_0_L1I_prefetch_filled 0
Core_0_L1I_prefetch_useful 0
Core_0_L1I_prefetch_useless 0
Core_0_L1I_prefetch_late 0
Core_0_L1I_average_miss_latency -nan

Core_0_L1I_rq_access 9999999
Core_0_L1I_rq_forward 0
Core_0_L1I_rq_merged 7597822
Core_0_L1I_rq_to_cache 2402177
Core_0_L1I_rq_full 0

Core_0_L1I_wq_access 0
Core_0_L1I_wq_forward 0
Core_0_L1I_wq_merged 0
Core_0_L1I_wq_to_cache 0
Core_0_L1I_wq_full 0

Core_0_L1I_pq_access 0
Core_0_L1I_pq_forward 0
Core_0_L1I_pq_merged 0
Core_0_L1I_pq_to_cache 0
Core_0_L1I_pq_full 0

Core_0_L1I_acc_epochs 14370
Core_0_L1I_acc_level_0 14370
Core_0_L1I_acc_level_1 0
Core_0_L1I_acc_level_2 0
Core_0_L1I_acc_level_3 0
Core_0_L1I_acc_level_4 0
Core_0_L1I_acc_level_5 0
Core_0_L1I_acc_level_6 0
Core_0_L1I_acc_level_7 0
Core_0_L1I_acc_level_8 0
Core_0_L1I_acc_level_9 0

Core_0_L2C_total_access 1021520
Core_0_L2C_total_hit 730929
Core_0_L2C_total_miss 290591
Core_0_L2C_loads 71146
Core_0_L2C_load_hit 57517
Core_0_L2C_load_miss 13629
Core_0_L2C_RFOs 398374
Core_0_L2C_RFO_hit 178932
Core_0_L2C_RFO_miss 219442
Core_0_L2C_prefetches 153627
Core_0_L2C_prefetch_hit 96116
Core_0_L2C_prefetch_miss 57511
Core_0_L2C_writebacks 398373
Core_0_L2C_writeback_hit 398364
Core_0_L2C_writeback_miss 9
Core_0_L2C_prefetch_requested 254738
Core_0_L2C_prefetch_dropped 0
Core_0_L2C_prefetch_issued 254738
Core_0_L2C_prefetch_filled 64101
Core_0_L2C_prefetch_useful 64087
Core_0_L2C_prefetch_useless 11
Core_0_L2C_prefetch_late 9061
Core_0_L2C_average_miss_latency 781.83855

Core_0_L2C_rq_access 469524
Core_0_L2C_rq_forward 0
Core_0_L2C_rq_merged 0
Core_0_L2C_rq_to_cache 469524
Core_0_L2C_rq_full 0

Core_0_L2C_wq_access 398373
Core_0_L2C_wq_forward 0
Core_0_L2C_wq_merged 0
Core_0_L2C_wq_to_cache 398373
Core_0_L2C_wq_full 0

Core_0_L2C_pq_access 254738
Core_0_L2C_pq_forward 0
Core_0_L2C_pq_merged 18524
Core_0_L2C_pq_to_cache 236214
Core_0_L2C_pq_full 0

Core_0_L2C_acc_epochs 14370
Core_0_L2C_acc_level_0 12
Core_0_L2C_acc_level_1 42
Core_0_L2C_acc_level_2 86
Core_0_L2C_acc_level_3 203
Core_0_L2C_acc_level_4 283
Core_0_L2C_acc_level_5 475
Core_0_L2C_acc_level_6 1068
Core_0_L2C_acc_level_7 1706
Core_0_L2C_acc_level_8 1894
Core_0_L2C_acc_level_9 8601

Core_0_LLC_total_access 509895
Core_0_LLC_total_hit 33913
Core_0_LLC_total_miss 475982
Core_0_LLC_loads 4579
Core_0_LLC_load_hit 0
Core_0_LLC_load_miss 4579
Core_0_LLC_RFOs 219438
Core_0_LLC_RFO_hit 8088
Core_0_LLC_RFO_miss 211350
Core_0_LLC_prefetches 66561
Core_0_LLC_prefetch_hit 0
Core_0_LLC_prefetch_miss 66561
Core_0_LLC_writebacks 219317
Core_0_LLC_writeback_hit 25825
Core_0_LLC_writeback_miss 193492
Core_0_LLC_prefetch_requested 0
Core_0_LLC_prefetch_dropped 0
Core_0_LLC_prefetch_issued 0
Core_0_LLC_prefetch_filled 73162
Core_0_LLC_prefetch_useful 0
Core_0_LLC_prefetch_useless 72584
Core_0_LLC_prefetch_late 0
Core_0_LLC_average_miss_latency 469.80524

Core_0_LLC_rq_access 224025
Core_0_LLC_rq_forward 0
Core_0_LLC_rq_merged 0
Core_0_LLC_rq_to_cache 224021
Core_0_LLC_rq_full 0

Core_0_LLC_wq_access 219317
Core_0_LLC_wq_forward 4
Core_0_LLC_wq_merged 0
Core_0_LLC_wq_to_cache 219317
Core_0_LLC_wq_full 0

Core_0_LLC_pq_access 73166
Core_0_LLC_pq_forward 0
Core_0_LLC_pq_merged 0
Core_0_LLC_pq_to_cache 73166
Core_0_LLC_pq_full 0

Core_0_LLC_acc_epochs 14800
Core_0_LLC_acc_level_0 14800
Core_0_LLC_acc_level_1 0
Core_0_LLC_acc_level_2 0
Core_0_LLC_acc_level_3 0
Core_0_LLC_acc_level_4 0
Core_0_LLC_acc_level_5 0
Core_0_LLC_acc_level_6 0
Core_0_LLC_acc_level_7 0
Core_0_LLC_acc_level_8 0
Core_0_LLC_acc_level_9 0

Core_0_major_page_fault 0
Core_0_minor_page_fault 3237

scooby_st_lookup 78173
scooby_st_hit 76942
scooby_st_evict 1167
scooby_st_insert 1231
scooby_st_streaming 0

scooby_predict_called 78173
scooby_predict_out_of_bounds 2225
scooby_predict_action_1 46164
scooby_predict_issue_action_1 31849
scooby_predict_hit_action_1 14315
scooby_predict_out_of_bounds_action_1 738
scooby_predict_action_3 29694
scooby_predict_issue_action_3 29140
scooby_predict_hit_action_3 554
scooby_predict_out_of_bounds_action_3 1456
scooby_predict_action_4 9
scooby_predict_issue_action_4 9
scooby_predict_hit_action_4 0
scooby_predict_out_of_bounds_action_4 0
scooby_predict_action_5 7
scooby_predict_issue_action_5 7
scooby_predict_hit_action_5 0
scooby_predict_out_of_bounds_action_5 1
scooby_predict_action_10 11
scooby_predict_issue_action_10 11
scooby_predict_hit_action_10 0
scooby_predict_out_of_bounds_action_10 4
scooby_predict_action_11 8
scooby_predict_issue_action_11 8
scooby_predict_hit_action_11 0
scooby_predict_out_of_bounds_action_11 1
scooby_predict_action_12 7
scooby_predict_issue_action_12 7
scooby_predict_hit_action_12 0
scooby_predict_out_of_bounds_action_12 2
scooby_predict_action_22 7
scooby_predict_issue_action_22 7
scooby_predict_hit_action_22 0
scooby_predict_out_of_bounds_action_22 5
scooby_predict_action_23 8
scooby_predict_issue_action_23 8
scooby_predict_hit_action_23 0
scooby_predict_out_of_bounds_action_23 4
scooby_predict_action_30 3
scooby_predict_issue_action_30 3
scooby_predict_hit_action_30 0
scooby_predict_out_of_bounds_action_30 8
scooby_predict_action_32 5
scooby_predict_issue_action_32 5
scooby_predict_hit_action_32 0
scooby_predict_out_of_bounds_action_32 6
scooby_predict_action_-1 8
scooby_predict_issue_action_-1 1
scooby_predict_hit_action_-1 7
scooby_predict_out_of_bounds_action_-1 0
scooby_predict_action_-3 5
scooby_predict_issue_action_-3 0
scooby_predict_hit_action_-3 5
scooby_predict_out_of_bounds_action_-3 0
scooby_predict_action_-6 5
scooby_predict_issue_action_-6 1
scooby_predict_hit_action_-6 4
scooby_predict_out_of_bounds_action_-6 0
scooby_predict_action_0 7
scooby_predict_issue_action_0 0
scooby_predict_hit_action_0 0
scooby_predict_out_of_bounds_action_0 0
scooby_predict_multi_deg_called 53450
scooby_predict_predicted 254738
scooby_predict_multi_deg 193682
scooby_predict_multi_deg_2 51519
scooby_predict_multi_deg_3 44582
scooby_predict_multi_deg_4 42658
scooby_predict_multi_deg_5 28406
scooby_predict_multi_deg_6 26517
scooby_predict_multi_deg_7 0
scooby_predict_multi_deg_8 0
scooby_predict_multi_deg_9 0
scooby_predict_multi_deg_10 0
scooby_predict_multi_deg_11 0
scooby_predict_multi_deg_12 0
scooby_predict_multi_deg_13 0
scooby_predict_multi_deg_14 0
scooby_predict_multi_deg_15 0
scooby_predict_multi_deg_16 0

scooby_selected_deg_1 7606
scooby_selected_deg_2 5006
scooby_selected_deg_3 0
scooby_selected_deg_4 12409
scooby_selected_deg_5 0
scooby_selected_deg_6 36035
scooby_selected_deg_7 0
scooby_selected_deg_8 0
scooby_selected_deg_9 0
scooby_selected_deg_10 0
scooby_selected_deg_11 0
scooby_selected_deg_12 0
scooby_selected_deg_13 0
scooby_selected_deg_14 0
scooby_selected_deg_15 0
scooby_selected_deg_16 0

scooby_state_40070d|1|0 488,0,0,0,0,0,0,0,0,0,0,0,0,0,0,488,
scooby_state_40070d|0|0 488,0,0,0,0,0,0,0,0,0,0,0,0,0,0,488,
scooby_state_40070d|3|3 488,0,0,0,0,0,0,0,0,0,0,0,0,0,0,488,
scooby_state_40070d|4|4 257,0,0,0,0,0,0,0,0,0,0,0,0,0,0,257,
scooby_state_40077f|0|-1 1,247,0,0,0,0,0,0,0,0,0,0,0,0,0,248,
scooby_state_40070d|9|3 244,0,0,0,0,0,1,0,0,0,0,0,0,0,0,245,
scooby_state_40070d|43|3 245,0,0,0,0,0,0,0,0,0,0,0,0,0,0,245,
scooby_state_40070d|56|4 244,1,0,0,0,0,0,0,0,0,0,0,0,0,0,245,
scooby_state_40070d|46|4 245,0,0,0,0,0,0,0,0,0,0,0,0,0,0,245,
scooby_state_40070d|53|3 245,0,0,0,0,0,0,0,0,0,0,0,0,0,0,245,
scooby_state_40070d|48|3 245,0,0,0,0,0,0,0,0,0,0,0,0,0,0,245,
scooby_state_40070d|51|4 245,0,0,0,0,0,0,0,0,0,0,0,0,0,0,245,
scooby_state_40070d|2|0 245,0,0,0,0,0,0,0,0,0,0,0,0,0,0,245,
scooby_state_40070d|38|3 245,0,0,0,0,0,0,0,0,0,0,0,0,0,0,245,
scooby_state_40070d|36|3 244,0,0,0,0,0,0,0,0,1,0,0,0,0,0,245,
scooby_state_40070d|14|3 245,0,0,0,0,0,0,0,0,0,0,0,0,0,0,245,
scooby_state_40070d|61|4 245,0,0,0,0,0,0,0,0,0,0,0,0,0,0,245,
scooby_state_40070d|58|3 244,0,0,0,0,0,0,0,0,0,0,1,0,0,0,245,
scooby_state_40070d|63|3 245,0,0,0,0,0,0,0,0,0,0,0,0,0,0,245,
scooby_state_40070d|7|4 245,0,0,0,0,0,0,0,0,0,0,0,0,0,0,245,
scooby_state_40070d|41|4 245,0,0,0,0,0,0,0,0,0,0,0,0,0,0,245,
scooby_state_40070d|12|4 244,0,0,0,0,1,0,0,0,0,0,0,0,0,0,245,
scooby_state_40070d|52|4 242,0,0,0,1,0,0,0,0,1,0,0,0,0,0,244,
scooby_state_40070d|13|3 244,0,0,0,0,0,0,0,0,0,0,0,0,0,0,244,
scooby_state_40070d|59|4 243,0,0,0,0,0,0,0,0,0,0,0,1,0,0,244,
scooby_state_40070d|30|3 244,0,0,0,0,0,0,0,0,0,0,0,0,0,0,244,
scooby_state_40070d|39|3 243,0,0,0,0,0,0,0,1,0,0,0,0,0,0,244,
scooby_state_40070d|22|4 244,0,0,0,0,0,0,0,0,0,0,0,0,0,0,244,
scooby_state_40070d|34|3 244,0,0,0,0,0,0,0,0,0,0,0,0,0,0,244,
scooby_state_40070d|38|4 242,0,1,0,0,0,0,0,1,0,0,0,0,0,0,244,
scooby_state_40070d|34|4 243,0,0,0,1,0,0,0,0,0,0,0,0,0,0,244,
scooby_state_40070d|15|4 243,0,0,0,0,0,0,0,1,0,0,0,0,0,0,244,
scooby_state_40070d|36|4 244,0,0,0,0,0,0,0,0,0,0,0,0,0,0,244,
scooby_state_40070d|5|3 244,0,0,0,0,0,0,0,0,0,0,0,0,0,0,244,
scooby_state_40070d|28|4 243,0,0,0,0,0,1,0,0,0,0,0,0,0,0,244,
scooby_state_40070d|50|3 244,0,0,0,0,0,0,0,0,0,0,0,0,0,0,244,
scooby_state_40070d|37|4 244,0,0,0,0,0,0,0,0,0,0,0,0,0,0,244,
scooby_state_40070d|35|3 243,0,0,0,0,0,0,1,0,0,0,0,0,0,0,244,
scooby_state_40070d|53|4 244,0,0,0,0,0,0,0,0,0,0,0,0,0,0,244,
scooby_state_40070d|27|4 243,0,0,0,0,0,0,0,0,0,0,0,0,0,1,244,
scooby_state_40070d|42|4 244,0,0,0,0,0,0,0,0,0,0,0,0,0,0,244,
scooby_state_40070d|33|4 241,1,0,1,0,0,0,0,0,0,1,0,0,0,0,244,
scooby_state_40070d|31|4 241,0,1,0,1,0,0,0,0,0,0,1,0,0,0,244,
scooby_state_40070d|23|3 244,0,0,0,0,0,0,0,0,0,0,0,0,0,0,244,
scooby_state_40070d|37|3 242,0,0,0,0,0,0,0,0,0,0,0,0,1,1,244,
scooby_state_40070d|60|4 244,0,0,0,0,0,0,0,0,0,0,0,0,0,0,244,
scooby_state_40070d|59|3 244,0,0,0,0,0,0,0,0,0,0,0,0,0,0,244,
scooby_state_40070d|10|3 243,0,0,1,0,0,0,0,0,0,0,0,0,0,0,244,
scooby_state_40070d|29|4 244,0,0,0,0,0,0,0,0,0,0,0,0,0,0,244,
scooby_state_40070d|26|4 242,0,1,1,0,0,0,0,0,0,0,0,0,0,0,244,
scooby_state_40070d|15|3 244,0,0,0,0,0,0,0,0,0,0,0,0,0,0,244,
scooby_state_40070d|14|4 243,0,0,0,0,0,0,0,0,0,1,0,0,0,0,244,
scooby_state_40070d|58|4 243,0,0,0,1,0,0,0,0,0,0,0,0,0,0,244,
scooby_state_40070d|16|3 244,0,0,0,0,0,0,0,0,0,0,0,0,0,0,244,
scooby_state_40070d|20|3 244,0,0,0,0,0,0,0,0,0,0,0,0,0,0,244,
scooby_state_40070d|40|3 243,0,0,0,0,0,0,0,0,1,0,0,0,0,0,244,
scooby_state_40070d|19|4 244,0,0,0,0,0,0,0,0,0,0,0,0,0,0,244,
scooby_state_40070d|24|4 243,0,1,0,0,0,0,0,0,0,0,0,0,0,0,244,
scooby_state_40070d|60|3 243,0,0,0,0,0,0,0,0,0,1,0,0,0,0,244,
scooby_state_40070d|26|3 244,0,0,0,0,0,0,0,0,0,0,0,0,0,0,244,
scooby_state_40070d|30|4 244,0,0,0,0,0,0,0,0,0,0,0,0,0,0,244,
scooby_state_40070d|21|3 243,0,0,0,0,0,0,1,0,0,0,0,0,0,0,244,
scooby_state_40070d|48|4 243,0,0,0,0,0,0,0,0,0,1,0,0,0,0,244,
scooby_state_40070d|45|3 244,0,0,0,0,0,0,0,0,0,0,0,0,0,0,244,
scooby_state_40070d|23|4 243,0,0,0,0,0,0,0,0,0,1,0,0,0,0,244,
scooby_state_40070d|31|3 242,0,0,0,0,0,0,0,0,0,1,0,0,1,0,244,
scooby_state_40070d|25|3 244,0,0,0,0,0,0,0,0,0,0,0,0,0,0,244,
scooby_state_40070d|49|4 244,0,0,0,0,0,0,0,0,0,0,0,0,0,0,244,
scooby_state_40070d|13|4 244,0,0,0,0,0,0,0,0,0,0,0,0,0,0,244,
scooby_state_40070d|25|4 244,0,0,0,0,0,0,0,0,0,0,0,0,0,0,244,
scooby_state_40070d|51|3 243,0,0,0,0,0,0,0,1,0,0,0,0,0,0,244,
scooby_state_40070d|18|4 244,0,0,0,0,0,0,0,0,0,0,0,0,0,0,244,
scooby_state_40070d|7|3 244,0,0,0,0,0,0,0,0,0,0,0,0,0,0,244,
scooby_state_40070d|55|4 244,0,0,0,0,0,0,0,0,0,0,0,0,0,0,244,
scooby_state_40070d|52|3 243,0,0,0,0,0,0,0,0,1,0,0,0,0,0,244,
scooby_state_40070d|54|4 244,0,0,0,0,0,0,0,0,0,0,0,0,0,0,244,
scooby_state_40070d|21|4 244,0,0,0,0,0,0,0,0,0,0,0,0,0,0,244,
scooby_state_40070d|33|3 243,0,0,0,0,1,0,0,0,0,0,0,0,0,0,244,
scooby_state_40070d|49|3 244,0,0,0,0,0,0,0,0,0,0,0,0,0,0,244,
scooby_state_40070d|44|4 243,0,0,0,0,0,0,0,0,1,0,0,0,0,0,244,
scooby_state_40070d|47|4 244,0,0,0,0,0,0,0,0,0,0,0,0,0,0,244,
scooby_state_40070d|57|4 243,0,0,0,0,0,0,1,0,0,0,0,0,0,0,244,
scooby_state_40070d|17|3 243,0,0,0,0,0,0,0,0,0,0,1,0,0,0,244,
scooby_state_40070d|11|3 244,0,0,0,0,0,0,0,0,0,0,0,0,0,0,244,
scooby_state_40070d|5|4 244,0,0,0,0,0,0,0,0,0,0,0,0,0,0,244,
scooby_state_40070d|62|4 244,0,0,0,0,0,0,0,0,0,0,0,0,0,0,244,
scooby_state_40070d|28|3 244,0,0,0,0,0,0,0,0,0,0,0,0,0,0,244,
scooby_state_40070d|8|3 244,0,0,0,0,0,0,0,0,0,0,0,0,0,0,244,
scooby_state_40070d|10|4 244,0,0,0,0,0,0,0,0,0,0,0,0,0,0,244,
scooby_state_40070d|50|4 244,0,0,0,0,0,0,0,0,0,0,0,0,0,0,244,
scooby_state_40070d|11|4 244,0,0,0,0,0,0,0,0,0,0,0,0,0,0,244,
scooby_state_40070d|56|3 244,0,0,0,0,0,0,0,0,0,0,0,0,0,0,244,
scooby_state_40070d|61|3 243,0,0,0,0,0,0,1,0,0,0,0,0,0,0,244,
scooby_state_40070d|20|4 244,0,0,0,0,0,0,0,0,0,0,0,0,0,0,244,
scooby_state_40070d|47|3 244,0,0,0,0,0,0,0,0,0,0,0,0,0,0,244,
scooby_state_40070d|22|3 244,0,0,0,0,0,0,0,0,0,0,0,0,0,0,244,
scooby_state_40070d|12|3 243,0,0,0,0,0,0,0,1,0,0,0,0,0,0,244,
scooby_state_40070d|27|3 243,0,0,0,0,0,0,0,0,0,0,0,0,0,1,244,
scooby_state_40070d|45|4 244,0,0,0,0,0,0,0,0,0,0,0,0,0,0,244,
scooby_state_40070d|42|3 243,0,0,0,0,0,0,1,0,0,0,0,0,0,0,244,
scooby_state_40070d|32|3 244,0,0,0,0,0,0,0,0,0,0,0,0,0,0,244,
scooby_state_40070d|35|4 243,0,0,0,0,0,0,0,0,0,1,0,0,0,0,244,
scooby_state_40070d|6|3 244,0,0,0,0,0,0,0,0,0,0,0,0,0,0,244,
scooby_state_40070d|16|4 244,0,0,0,0,0,0,0,0,0,0,0,0,0,0,244,
scooby_state_40070d|9|4 244,0,0,0,0,0,0,0,0,0,0,0,0,0,0,244,
scooby_state_40070d|6|4 243,0,0,0,0,0,0,0,0,1,0,0,0,0,0,244,
scooby_state_40070d|55|3 244,0,0,0,0,0,0,0,0,0,0,0,0,0,0,244,
scooby_state_40070d|43|4 242,0,0,0,0,0,1,0,0,0,0,0,1,0,0,244,
scooby_state_40070d|8|4 244,0,0,0,0,0,0,0,0,0,0,0,0,0,0,244,
scooby_state_40070d|46|3 243,0,0,0,0,0,0,1,0,0,0,0,0,0,0,244,
scooby_state_40070d|54|3 243,1,0,0,0,0,0,0,0,0,0,0,0,0,0,244,
scooby_state_40070d|17|4 244,0,0,0,0,0,0,0,0,0,0,0,0,0,0,244,
scooby_state_40070d|62|3 244,0,0,0,0,0,0,0,0,0,0,0,0,0,0,244,
scooby_state_40070d|40|4 242,0,0,0,1,0,1,0,0,0,0,0,0,0,0,244,
scooby_state_40070d|39|4 244,0,0,0,0,0,0,0,0,0,0,0,0,0,0,244,
scooby_state_40070d|2|2 244,0,0,0,0,0,0,0,0,0,0,0,0,0,0,244,
scooby_state_40070d|29|3 243,0,0,0,0,1,0,0,0,0,0,0,0,0,0,244,
scooby_state_40070d|18|3 244,0,0,0,0,0,0,0,0,0,0,0,0,0,0,244,
scooby_state_40070d|32|4 242,0,0,0,1,0,0,0,0,0,0,0,0,0,1,244,
scooby_state_40070d|57|3 244,0,0,0,0,0,0,0,0,0,0,0,0,0,0,244,
scooby_state_40070d|44|3 244,0,0,0,0,0,0,0,0,0,0,0,0,0,0,244,
scooby_state_40070d|24|3 244,0,0,0,0,0,0,0,0,0,0,0,0,0,0,244,
scooby_state_40070d|19|3 244,0,0,0,0,0,0,0,0,0,0,0,0,0,0,244,
scooby_state_40070d|63|4 244,0,0,0,0,0,0,0,0,0,0,0,0,0,0,244,
scooby_state_40070d|41|3 244,0,0,0,0,0,0,0,0,0,0,0,0,0,0,244,
scooby_state_40077f|14|1 1,240,0,0,0,0,0,0,0,0,0,0,0,0,0,241,
scooby_state_40077f|34|1 0,240,0,0,0,0,1,0,0,0,0,0,0,0,0,241,
scooby_state_40077f|44|1 0,241,0,0,0,0,0,0,0,0,0,0,0,0,0,241,
scooby_state_40077f|24|1 1,239,0,0,1,0,0,0,0,0,0,0,0,0,0,241,
scooby_state_40077f|10|1 0,239,0,0,0,0,0,0,1,0,0,0,0,0,0,240,
scooby_state_40077f|20|1 0,239,0,0,0,0,0,0,1,0,0,0,0,0,0,240,
scooby_state_40077f|50|1 1,239,0,0,0,0,0,0,0,0,0,0,0,0,0,240,
scooby_state_40077f|54|1 0,239,0,0,1,0,0,0,0,0,0,0,0,0,0,240,
scooby_state_40077f|48|1 1,238,0,0,0,0,0,0,0,1,0,0,0,0,0,240,
scooby_state_40077f|40|1 1,239,0,0,0,0,0,0,0,0,0,0,0,0,0,240,
scooby_state_40077f|30|1 0,239,0,0,0,0,0,0,0,1,0,0,0,0,0,240,
scooby_state_40077f|60|1 1,239,0,0,0,0,0,0,0,0,0,0,0,0,0,240,
scooby_state_40077f|6|1 1,239,0,0,0,0,0,0,0,0,0,0,0,0,0,240,
scooby_state_40077f|16|1 2,237,0,0,0,0,0,0,0,0,0,0,0,0,0,239,
scooby_state_40077f|58|1 1,237,0,0,0,0,0,0,0,0,0,0,0,1,0,239,
scooby_state_40077f|28|1 1,238,0,0,0,0,0,0,0,0,0,0,0,0,0,239,
scooby_state_400758|2|-1 0,239,0,0,0,0,0,0,0,0,0,0,0,0,0,239,
scooby_state_40077f|8|1 1,238,0,0,0,0,0,0,0,0,0,0,0,0,0,239,
scooby_state_40077f|38|1 1,238,0,0,0,0,0,0,0,0,0,0,0,0,0,239,
scooby_state_40077f|18|1 1,238,0,0,0,0,0,0,0,0,0,0,0,0,0,239,
scooby_state_40077f|56|1 1,235,0,0,0,0,0,0,1,0,0,0,1,0,0,238,
scooby_state_40077f|4|1 1,237,0,0,0,0,0,0,0,0,0,0,0,0,0,238,
scooby_state_40077f|26|1 1,237,0,0,0,0,0,0,0,0,0,0,0,0,0,238,
scooby_state_400732|63|2 238,0,0,0,0,0,0,0,0,0,0,0,0,0,0,238,
scooby_state_40077f|36|1 1,236,0,0,0,0,0,1,0,0,0,0,0,0,0,238,
scooby_state_40077f|12|1 1,237,0,0,0,0,0,0,0,0,0,0,0,0,0,238,
scooby_state_40077f|22|1 1,236,1,0,0,0,0,0,0,0,0,0,0,0,0,238,
scooby_state_400732|49|-2 237,0,0,0,0,0,0,0,0,0,0,0,0,0,0,237,
scooby_state_40077f|46|1 1,235,0,0,1,0,0,0,0,0,0,0,0,0,0,237,
scooby_state_400758|22|-1 0,237,0,0,0,0,0,0,0,0,0,0,0,0,0,237,
scooby_state_40077f|62|1 1,234,0,0,0,0,0,0,0,0,0,1,0,1,0,237,
scooby_state_40077f|42|1 1,235,0,0,0,0,0,0,0,0,0,0,0,0,0,236,
scooby_state_40077f|32|1 1,235,0,0,0,0,0,0,0,0,0,0,0,0,0,236,
scooby_state_400732|39|-2 236,0,0,0,0,0,0,0,0,0,0,0,0,0,0,236,
scooby_state_40077f|52|1 1,235,0,0,0,0,0,0,0,0,0,0,0,0,0,236,
scooby_state_400758|52|-1 1,234,0,0,0,0,0,0,0,0,0,0,0,0,0,235,
scooby_state_400758|42|-1 1,234,0,0,0,0,0,0,0,0,0,0,0,0,0,235,
scooby_state_400758|50|-1 1,234,0,0,0,0,0,0,0,0,0,0,0,0,0,235,
scooby_state_400758|62|-1 1,234,0,0,0,0,0,0,0,0,0,0,0,0,0,235,
scooby_state_400758|34|-1 1,232,0,0,0,0,0,2,0,0,0,0,0,0,0,235,
scooby_state_400758|46|-1 0,234,0,0,0,0,0,0,0,0,0,0,0,0,0,234,
scooby_state_400758|30|-1 1,233,0,0,0,0,0,0,0,0,0,0,0,0,0,234,
scooby_state_400758|10|-1 1,232,1,0,0,0,0,0,0,0,0,0,0,0,0,234,
scooby_state_40077f|2|1 1,232,0,0,0,0,0,1,0,0,0,0,0,0,0,234,
scooby_state_400758|40|-1 1,231,0,1,0,1,0,0,0,0,0,0,0,0,0,234,
scooby_state_400758|12|-1 0,234,0,0,0,0,0,0,0,0,0,0,0,0,0,234,
scooby_state_400758|56|-1 0,234,0,0,0,0,0,0,0,0,0,0,0,0,0,234,
scooby_state_400732|5|-2 234,0,0,0,0,0,0,0,0,0,0,0,0,0,0,234,
scooby_state_400758|32|-1 0,233,0,0,0,0,0,0,1,0,0,0,0,0,0,234,
scooby_state_400732|29|-2 233,0,0,0,0,0,0,0,0,0,0,0,0,0,0,233,
scooby_state_400758|18|-1 1,231,0,1,0,0,0,0,0,0,0,0,0,0,0,233,
scooby_state_400758|20|-1 1,232,0,0,0,0,0,0,0,0,0,0,0,0,0,233,
scooby_state_400758|54|-1 1,232,0,0,0,0,0,0,0,0,0,0,0,0,0,233,
scooby_state_400732|59|-2 233,0,0,0,0,0,0,0,0,0,0,0,0,0,0,233,
scooby_state_400732|61|-2 233,0,0,0,0,0,0,0,0,0,0,0,0,0,0,233,
scooby_state_400758|60|-1 1,230,0,0,0,1,1,0,0,0,0,0,0,0,0,233,
scooby_state_400732|27|-2 232,0,0,0,0,0,0,1,0,0,0,0,0,0,0,233,
scooby_state_400732|7|-2 232,0,0,0,0,0,0,0,0,0,1,0,0,0,0,233,
scooby_state_400732|19|-2 233,0,0,0,0,0,0,0,0,0,0,0,0,0,0,233,
scooby_state_400732|9|-2 233,0,0,0,0,0,0,0,0,0,0,0,0,0,0,233,
scooby_state_400758|28|-1 1,230,0,0,1,0,0,0,0,0,0,0,0,0,0,232,
scooby_state_400732|13|-2 232,0,0,0,0,0,0,0,0,0,0,0,0,0,0,232,
scooby_state_400758|44|-1 1,231,0,0,0,0,0,0,0,0,0,0,0,0,0,232,
scooby_state_400758|14|-1 1,231,0,0,0,0,0,0,0,0,0,0,0,0,0,232,
scooby_state_40077f|49|1 0,232,0,0,0,0,0,0,0,0,0,0,0,0,0,232,
scooby_state_40077f|39|1 0,231,0,0,1,0,0,0,0,0,0,0,0,0,0,232,
scooby_state_40070d|4|3 232,0,0,0,0,0,0,0,0,0,0,0,0,0,0,232,
scooby_state_400732|17|-2 231,1,0,0,0,0,0,0,0,0,0,0,0,0,0,232,
scooby_state_40077f|19|1 1,231,0,0,0,0,0,0,0,0,0,0,0,0,0,232,
scooby_state_40077f|45|1 1,230,0,0,0,0,0,0,0,0,0,0,0,0,0,231,
scooby_state_400758|26|-1 1,229,0,0,1,0,0,0,0,0,0,0,0,0,0,231,
scooby_state_400732|23|-2 231,0,0,0,0,0,0,0,0,0,0,0,0,0,0,231,
scooby_state_400758|4|-1 1,230,0,0,0,0,0,0,0,0,0,0,0,0,0,231,
scooby_state_400732|57|-2 230,1,0,0,0,0,0,0,0,0,0,0,0,0,0,231,
scooby_state_40077f|63|1 1,230,0,0,0,0,0,0,0,0,0,0,0,0,0,231,
scooby_state_40077f|29|1 1,230,0,0,0,0,0,0,0,0,0,0,0,0,0,231,
scooby_state_40077f|15|1 0,230,0,0,0,0,0,0,0,0,0,1,0,0,0,231,
scooby_state_400758|16|-1 1,230,0,0,0,0,0,0,0,0,0,0,0,0,0,231,
scooby_state_400732|37|-2 231,0,0,0,0,0,0,0,0,0,0,0,0,0,0,231,
scooby_state_400758|24|-1 1,230,0,0,0,0,0,0,0,0,0,0,0,0,0,231,
scooby_state_400732|47|-2 231,0,0,0,0,0,0,0,0,0,0,0,0,0,0,231,
scooby_state_40077f|59|1 0,231,0,0,0,0,0,0,0,0,0,0,0,0,0,231,
scooby_state_40077f|9|1 1,228,0,0,0,0,0,0,0,1,0,0,0,0,1,231,
scooby_state_400732|41|-2 230,0,0,0,0,0,0,0,0,0,0,0,0,0,0,230,
scooby_state_40077f|43|1 1,229,0,0,0,0,0,0,0,0,0,0,0,0,0,230,
scooby_state_400732|51|-2 230,0,0,0,0,0,0,0,0,0,0,0,0,0,0,230,
scooby_state_400732|53|-2 230,0,0,0,0,0,0,0,0,0,0,0,0,0,0,230,
scooby_state_40077f|11|1 1,227,0,0,0,0,0,0,0,0,0,1,1,0,0,230,
scooby_state_40077f|35|1 1,229,0,0,0,0,0,0,0,0,0,0,0,0,0,230,
scooby_state_40077f|25|1 0,230,0,0,0,0,0,0,0,0,0,0,0,0,0,230,
scooby_state_400758|58|-1 1,229,0,0,0,0,0,0,0,0,0,0,0,0,0,230,
scooby_state_400732|43|-2 229,0,0,0,0,1,0,0,0,0,0,0,0,0,0,230,
scooby_state_40077f|13|1 1,229,0,0,0,0,0,0,0,0,0,0,0,0,0,230,
scooby_state_400732|15|-2 230,0,0,0,0,0,0,0,0,0,0,0,0,0,0,230,
scooby_state_40077f|33|1 1,229,0,0,0,0,0,0,0,0,0,0,0,0,0,230,
scooby_state_400758|38|-1 1,229,0,0,0,0,0,0,0,0,0,0,0,0,0,230,
scooby_state_400758|36|-1 1,229,0,0,0,0,0,0,0,0,0,0,0,0,0,230,
scooby_state_40077f|53|1 1,229,0,0,0,0,0,0,0,0,0,0,0,0,0,230,
scooby_state_400732|33|-2 229,0,0,0,0,0,0,0,0,0,0,0,0,0,0,229,
scooby_state_40077f|55|1 1,227,0,0,0,0,0,0,0,1,0,0,0,0,0,229,
scooby_state_40077f|21|1 1,227,0,0,0,0,0,0,0,0,0,0,0,0,1,229,
scooby_state_400732|31|-2 229,0,0,0,0,0,0,0,0,0,0,0,0,0,0,229,
scooby_state_400732|45|-2 228,0,0,0,0,0,0,0,1,0,0,0,0,0,0,229,
scooby_state_400732|25|-2 229,0,0,0,0,0,0,0,0,0,0,0,0,0,0,229,
scooby_state_40077f|23|1 1,228,0,0,0,0,0,0,0,0,0,0,0,0,0,229,
scooby_state_400732|3|-2 228,0,0,0,0,0,0,0,0,0,0,0,0,0,0,228,
scooby_state_40077f|31|1 1,227,0,0,0,0,0,0,0,0,0,0,0,0,0,228,
scooby_state_40077f|57|1 1,227,0,0,0,0,0,0,0,0,0,0,0,0,0,228,
scooby_state_40077f|5|1 0,228,0,0,0,0,0,0,0,0,0,0,0,0,0,228,
scooby_state_400758|31|-1 2,226,0,0,0,0,0,0,0,0,0,0,0,0,0,228,
scooby_state_40077f|37|1 1,227,0,0,0,0,0,0,0,0,0,0,0,0,0,228,
scooby_state_40077f|27|1 1,227,0,0,0,0,0,0,0,0,0,0,0,0,0,228,
scooby_state_40077f|7|1 0,228,0,0,0,0,0,0,0,0,0,0,0,0,0,228,
scooby_state_400758|1|-1 1,226,0,1,0,0,0,0,0,0,0,0,0,0,0,228,
scooby_state_40077f|17|1 1,227,0,0,0,0,0,0,0,0,0,0,0,0,0,228,
scooby_state_400732|11|-2 228,0,0,0,0,0,0,0,0,0,0,0,0,0,0,228,
scooby_state_40077f|3|1 1,227,0,0,0,0,0,0,0,0,0,0,0,0,0,228,
scooby_state_40077f|51|1 1,226,0,0,0,0,0,0,0,0,0,0,0,0,0,227,
scooby_state_40077f|41|1 1,226,0,0,0,0,0,0,0,0,0,0,0,0,0,227,
scooby_state_400732|18|-2 227,0,0,0,0,0,0,0,0,0,0,0,0,0,0,227,
scooby_state_400758|45|-1 1,226,0,0,0,0,0,0,0,0,0,0,0,0,0,227,
scooby_state_40077f|61|1 1,226,0,0,0,0,0,0,0,0,0,0,0,0,0,227,
scooby_state_400732|35|-2 227,0,0,0,0,0,0,0,0,0,0,0,0,0,0,227,
scooby_state_400732|55|-2 226,0,0,0,0,0,0,1,0,0,0,0,0,0,0,227,
scooby_state_400758|48|-1 1,226,0,0,0,0,0,0,0,0,0,0,0,0,0,227,
scooby_state_400758|41|-1 0,226,1,0,0,0,0,0,0,0,0,0,0,0,0,227,
scooby_state_400732|62|2 226,0,0,0,0,0,0,0,0,0,0,0,0,0,1,227,
scooby_state_400732|38|-2 227,0,0,0,0,0,0,0,0,0,0,0,0,0,0,227,
scooby_state_400732|1|-2 226,0,0,0,0,0,0,0,0,0,0,0,0,0,0,226,
scooby_state_40077f|47|1 1,224,0,0,1,0,0,0,0,0,0,0,0,0,0,226,
scooby_state_400732|21|-2 226,0,0,0,0,0,0,0,0,0,0,0,0,0,0,226,
scooby_state_400758|63|2 2,224,0,0,0,0,0,0,0,0,0,0,0,0,0,226,
scooby_state_400758|13|-1 1,224,0,0,0,0,0,0,1,0,0,0,0,0,0,226,
scooby_state_400758|11|-1 2,224,0,0,0,0,0,0,0,0,0,0,0,0,0,226,
scooby_state_400758|55|-1 1,225,0,0,0,0,0,0,0,0,0,0,0,0,0,226,
scooby_state_400758|61|-1 0,226,0,0,0,0,0,0,0,0,0,0,0,0,0,226,
scooby_state_400758|21|-1 1,224,0,0,0,0,0,0,0,0,0,0,0,0,0,225,
scooby_state_400732|28|-2 225,0,0,0,0,0,0,0,0,0,0,0,0,0,0,225,
scooby_state_400758|5|-1 1,224,0,0,0,0,0,0,0,0,0,0,0,0,0,225,
scooby_state_400758|19|-1 1,224,0,0,0,0,0,0,0,0,0,0,0,0,0,225,
scooby_state_400758|51|-1 0,225,0,0,0,0,0,0,0,0,0,0,0,0,0,225,
scooby_state_400732|8|-2 225,0,0,0,0,0,0,0,0,0,0,0,0,0,0,225,
scooby_state_400732|58|-2 224,0,0,0,0,0,0,0,0,0,0,0,0,0,0,224,
scooby_state_400758|9|-1 0,224,0,0,0,0,0,0,0,0,0,0,0,0,0,224,
scooby_state_400758|35|-1 1,222,0,0,0,0,0,0,0,1,0,0,0,0,0,224,
scooby_state_400732|48|-2 224,0,0,0,0,0,0,0,0,0,0,0,0,0,0,224,
scooby_state_400758|25|-1 1,221,0,0,0,0,0,0,0,0,0,0,0,1,0,223,
scooby_state_400758|17|-1 0,223,0,0,0,0,0,0,0,0,0,0,0,0,0,223,
scooby_state_400732|14|-2 223,0,0,0,0,0,0,0,0,0,0,0,0,0,0,223,
scooby_state_400758|3|-1 1,222,0,0,0,0,0,0,0,0,0,0,0,0,0,223,
scooby_state_400732|20|-2 223,0,0,0,0,0,0,0,0,0,0,0,0,0,0,223,
scooby_state_400758|39|-1 1,222,0,0,0,0,0,0,0,0,0,0,0,0,0,223,
scooby_state_400732|44|-2 223,0,0,0,0,0,0,0,0,0,0,0,0,0,0,223,
scooby_state_400758|57|-1 1,222,0,0,0,0,0,0,0,0,0,0,0,0,0,223,
scooby_state_400758|23|-1 1,222,0,0,0,0,0,0,0,0,0,0,0,0,0,223,
scooby_state_400758|49|-1 1,221,0,0,0,0,0,0,0,0,0,0,0,0,0,222,
scooby_state_400758|43|-1 1,221,0,0,0,0,0,0,0,0,0,0,0,0,0,222,
scooby_state_400732|52|-2 222,0,0,0,0,0,0,0,0,0,0,0,0,0,0,222,
scooby_state_400732|26|-2 222,0,0,0,0,0,0,0,0,0,0,0,0,0,0,222,
scooby_state_400732|6|-2 222,0,0,0,0,0,0,0,0,0,0,0,0,0,0,222,
scooby_state_400732|56|-2 221,0,0,0,0,0,0,0,0,0,0,0,0,0,0,221,
scooby_state_400732|30|-2 221,0,0,0,0,0,0,0,0,0,0,0,0,0,0,221,
scooby_state_400732|50|-2 221,0,0,0,0,0,0,0,0,0,0,0,0,0,0,221,
scooby_state_400732|54|-2 220,0,0,0,1,0,0,0,0,0,0,0,0,0,0,221,
scooby_state_400732|12|-2 221,0,0,0,0,0,0,0,0,0,0,0,0,0,0,221,
scooby_state_400732|10|-2 221,0,0,0,0,0,0,0,0,0,0,0,0,0,0,221,
scooby_state_400732|34|-2 221,0,0,0,0,0,0,0,0,0,0,0,0,0,0,221,
scooby_state_400732|32|-2 219,0,0,0,0,0,1,0,0,0,1,0,0,0,0,221,
scooby_state_400758|33|-1 1,219,0,0,0,1,0,0,0,0,0,0,0,0,0,221,
scooby_state_400758|29|-1 1,218,0,0,0,0,0,0,0,0,0,1,0,0,0,220,
scooby_state_400732|4|-2 220,0,0,0,0,0,0,0,0,0,0,0,0,0,0,220,
scooby_state_400732|40|-2 219,0,0,0,0,0,0,0,0,0,0,1,0,0,0,220,
scooby_state_400732|16|-2 219,0,0,0,0,0,0,0,0,0,1,0,0,0,0,220,
scooby_state_400758|15|-1 1,219,0,0,0,0,0,0,0,0,0,0,0,0,0,220,
scooby_state_400732|36|-2 219,0,1,0,0,0,0,0,0,0,0,0,0,0,0,220,
scooby_state_400732|42|-2 220,0,0,0,0,0,0,0,0,0,0,0,0,0,0,220,
scooby_state_400758|8|-1 1,219,0,0,0,0,0,0,0,0,0,0,0,0,0,220,
scooby_state_400758|47|-1 1,219,0,0,0,0,0,0,0,0,0,0,0,0,0,220,
scooby_state_400758|53|-1 1,219,0,0,0,0,0,0,0,0,0,0,0,0,0,220,
scooby_state_400732|60|-2 218,0,0,0,1,0,0,0,0,0,0,0,0,0,0,219,
scooby_state_400758|37|-1 1,218,0,0,0,0,0,0,0,0,0,0,0,0,0,219,
scooby_state_400732|24|-2 219,0,0,0,0,0,0,0,0,0,0,0,0,0,0,219,
scooby_state_400758|27|-1 0,219,0,0,0,0,0,0,0,0,0,0,0,0,0,219,
scooby_state_400732|22|-2 218,0,0,0,0,0,0,0,0,0,0,0,0,0,0,218,
scooby_state_40077f|1|1 1,215,0,1,0,0,0,0,0,0,0,0,0,0,0,217,
scooby_state_400758|59|-1 1,216,0,0,0,0,0,0,0,0,0,0,0,0,0,217,
scooby_state_400732|2|-2 217,0,0,0,0,0,0,0,0,0,0,0,0,0,0,217,
scooby_state_400758|6|-1 1,215,0,0,0,0,0,0,0,0,0,0,0,0,0,216,
scooby_state_400732|46|-2 215,0,0,0,0,0,0,0,0,0,0,0,0,0,0,215,
scooby_state_400758|0|-1 1,211,0,0,0,0,0,0,0,0,0,0,0,0,0,212,
scooby_state_400758|7|-1 0,208,0,0,0,0,0,0,0,0,0,0,0,0,0,208,
scooby_state_400732|0|-2 204,0,0,0,0,1,0,0,0,0,0,0,0,0,0,205,
scooby_state_400769|6|-1 24,0,0,0,0,0,0,0,0,0,0,0,0,0,0,24,
scooby_state_400769|7|-1 23,0,0,0,0,0,0,0,0,0,0,0,0,0,0,23,
scooby_state_400769|8|-1 20,0,0,0,0,0,0,0,0,0,0,0,0,0,0,20,
scooby_state_400660|7|1 1,15,0,0,0,0,0,0,0,0,0,0,0,0,0,16,
scooby_state_400637|43|-1 0,16,0,0,0,0,0,0,0,0,0,0,0,0,0,16,
scooby_state_400660|17|1 0,16,0,0,0,0,0,0,0,0,0,0,0,0,0,16,
scooby_state_400611|60|-2 16,0,0,0,0,0,0,0,0,0,0,0,0,0,0,16,
scooby_state_400611|6|-2 16,0,0,0,0,0,0,0,0,0,0,0,0,0,0,16,
scooby_state_400637|49|-1 0,16,0,0,0,0,0,0,0,0,0,0,0,0,0,16,
scooby_state_400611|50|-2 16,0,0,0,0,0,0,0,0,0,0,0,0,0,0,16,
scooby_state_400660|27|1 0,16,0,0,0,0,0,0,0,0,0,0,0,0,0,16,
scooby_state_400637|53|-1 0,16,0,0,0,0,0,0,0,0,0,0,0,0,0,16,
scooby_state_400637|19|-1 0,16,0,0,0,0,0,0,0,0,0,0,0,0,0,16,
scooby_state_400611|46|-2 16,0,0,0,0,0,0,0,0,0,0,0,0,0,0,16,
scooby_state_400637|63|2 2,14,0,0,0,0,0,0,0,0,0,0,0,0,0,16,
scooby_state_400611|40|-2 16,0,0,0,0,0,0,0,0,0,0,0,0,0,0,16,
scooby_state_400611|26|-2 16,0,0,0,0,0,0,0,0,0,0,0,0,0,0,16,
scooby_state_400637|29|-1 0,16,0,0,0,0,0,0,0,0,0,0,0,0,0,16,
scooby_state_400660|47|1 0,16,0,0,0,0,0,0,0,0,0,0,0,0,0,16,
scooby_state_400660|41|1 0,16,0,0,0,0,0,0,0,0,0,0,0,0,0,16,
scooby_state_400660|51|1 0,16,0,0,0,0,0,0,0,0,0,0,0,0,0,16,
scooby_state_400637|9|-1 1,15,0,0,0,0,0,0,0,0,0,0,0,0,0,16,
scooby_state_400611|16|-2 16,0,0,0,0,0,0,0,0,0,0,0,0,0,0,16,
scooby_state_400660|61|1 0,15,0,1,0,0,0,0,0,0,0,0,0,0,0,16,
scooby_state_400637|13|-1 0,15,0,0,0,0,0,0,0,0,0,0,0,0,0,15,
scooby_state_400660|37|1 0,15,0,0,0,0,0,0,0,0,0,0,0,0,0,15,
scooby_state_400660|57|1 0,15,0,0,0,0,0,0,0,0,0,0,0,0,0,15,
scooby_state_400637|59|-1 0,15,0,0,0,0,0,0,0,0,0,0,0,0,0,15,
scooby_state_400660|23|1 0,15,0,0,0,0,0,0,0,0,0,0,0,0,0,15,
scooby_state_400611|10|-2 15,0,0,0,0,0,0,0,0,0,0,0,0,0,0,15,
scooby_state_400637|33|-1 0,15,0,0,0,0,0,0,0,0,0,0,0,0,0,15,
scooby_state_400611|22|-2 15,0,0,0,0,0,0,0,0,0,0,0,0,0,0,15,
scooby_state_400611|30|-2 15,0,0,0,0,0,0,0,0,0,0,0,0,0,0,15,
scooby_state_400637|25|-1 0,15,0,0,0,0,0,0,0,0,0,0,0,0,0,15,
scooby_state_400611|36|-2 15,0,0,0,0,0,0,0,0,0,0,0,0,0,0,15,
scooby_state_400660|31|1 0,15,0,0,0,0,0,0,0,0,0,0,0,0,0,15,
scooby_state_400611|20|-2 15,0,0,0,0,0,0,0,0,0,0,0,0,0,0,15,
scooby_state_400637|39|-1 0,15,0,0,0,0,0,0,0,0,0,0,0,0,0,15,
scooby_state_400660|21|1 0,15,0,0,0,0,0,0,0,0,0,0,0,0,0,15,
scooby_state_400637|5|-1 0,15,0,0,0,0,0,0,0,0,0,0,0,0,0,15,
scooby_state_400611|56|-2 15,0,0,0,0,0,0,0,0,0,0,0,0,0,0,15,
scooby_state_400611|54|-2 15,0,0,0,0,0,0,0,0,0,0,0,0,0,0,15,
scooby_state_400637|23|-1 0,15,0,0,0,0,0,0,0,0,0,0,0,0,0,15,
scooby_state_400637|3|-1 1,14,0,0,0,0,0,0,0,0,0,0,0,0,0,15,
scooby_state_400637|57|-1 0,14,0,0,0,0,0,0,1,0,0,0,0,0,0,15,
scooby_state_400660|3|1 0,15,0,0,0,0,0,0,0,0,0,0,0,0,0,15,
scooby_state_400660|11|1 0,15,0,0,0,0,0,0,0,0,0,0,0,0,0,15,
scooby_state_400660|55|1 0,15,0,0,0,0,0,0,0,0,0,0,0,0,0,15,
scooby_state_400660|35|1 0,14,0,0,0,0,0,0,0,0,0,0,0,0,0,14,
scooby_state_400611|34|-2 14,0,0,0,0,0,0,0,0,0,0,0,0,0,0,14,
scooby_state_400660|13|1 0,14,0,0,0,0,0,0,0,0,0,0,0,0,0,14,
scooby_state_400660|33|1 0,14,0,0,0,0,0,0,0,0,0,0,0,0,0,14,
scooby_state_400637|47|-1 0,14,0,0,0,0,0,0,0,0,0,0,0,0,0,14,
scooby_state_400660|45|1 0,14,0,0,0,0,0,0,0,0,0,0,0,0,0,14,
scooby_state_400637|55|-1 0,14,0,0,0,0,0,0,0,0,0,0,0,0,0,14,
scooby_state_400637|15|-1 0,14,0,0,0,0,0,0,0,0,0,0,0,0,0,14,
scooby_state_400660|53|1 0,14,0,0,0,0,0,0,0,0,0,0,0,0,0,14,
scooby_state_400660|1|1 1,13,0,0,0,0,0,0,0,0,0,0,0,0,0,14,
scooby_state_400611|2|-2 14,0,0,0,0,0,0,0,0,0,0,0,0,0,0,14,
scooby_state_400611|0|-2 14,0,0,0,0,0,0,0,0,0,0,0,0,0,0,14,
scooby_state_400637|35|-1 0,14,0,0,0,0,0,0,0,0,0,0,0,0,0,14,
scooby_state_400611|12|-2 14,0,0,0,0,0,0,0,0,0,0,0,0,0,0,14,
scooby_state_400611|32|-2 14,0,0,0,0,0,0,0,0,0,0,0,0,0,0,14,
scooby_state_400611|52|-2 14,0,0,0,0,0,0,0,0,0,0,0,0,0,0,14,
scooby_state_400611|44|-2 14,0,0,0,0,0,0,0,0,0,0,0,0,0,0,14,
scooby_state_400637|37|-1 1,13,0,0,0,0,0,0,0,0,0,0,0,0,0,14,
scooby_state_400611|58|-2 13,0,0,0,0,0,0,0,0,0,0,0,0,0,0,13,
scooby_state_400637|7|-1 0,13,0,0,0,0,0,0,0,0,0,0,0,0,0,13,
scooby_state_40073d|46|-2 0,13,0,0,0,0,0,0,0,0,0,0,0,0,0,13,
scooby_state_400660|59|1 0,13,0,0,0,0,0,0,0,0,0,0,0,0,0,13,
scooby_state_400611|42|-2 12,0,0,0,0,1,0,0,0,0,0,0,0,0,0,13,
scooby_state_400660|29|1 0,13,0,0,0,0,0,0,0,0,0,0,0,0,0,13,
scooby_state_400660|25|1 0,13,0,0,0,0,0,0,0,0,0,0,0,0,0,13,
scooby_state_400732|0|-1 13,0,0,0,0,0,0,0,0,0,0,0,0,0,0,13,
scooby_state_400611|28|-2 13,0,0,0,0,0,0,0,0,0,0,0,0,0,0,13,
scooby_state_400637|11|-1 0,13,0,0,0,0,0,0,0,0,0,0,0,0,0,13,
scooby_state_400637|45|-1 0,13,0,0,0,0,0,0,0,0,0,0,0,0,0,13,
scooby_state_400637|61|-1 1,12,0,0,0,0,0,0,0,0,0,0,0,0,0,13,
scooby_state_400660|43|1 0,13,0,0,0,0,0,0,0,0,0,0,0,0,0,13,
scooby_state_400637|1|-1 0,13,0,0,0,0,0,0,0,0,0,0,0,0,0,13,
scooby_state_400611|62|2 13,0,0,0,0,0,0,0,0,0,0,0,0,0,0,13,
scooby_state_400611|8|-2 13,0,0,0,0,0,0,0,0,0,0,0,0,0,0,13,
scooby_state_400637|27|-1 0,13,0,0,0,0,0,0,0,0,0,0,0,0,0,13,
scooby_state_400611|24|-2 13,0,0,0,0,0,0,0,0,0,0,0,0,0,0,13,
scooby_state_400660|9|1 0,13,0,0,0,0,0,0,0,0,0,0,0,0,0,13,
scooby_state_400611|4|-2 12,0,1,0,0,0,0,0,0,0,0,0,0,0,0,13,
scooby_state_400660|5|1 0,13,0,0,0,0,0,0,0,0,0,0,0,0,0,13,
scooby_state_400637|31|-1 0,13,0,0,0,0,0,0,0,0,0,0,0,0,0,13,
scooby_state_400637|17|-1 0,13,0,0,0,0,0,0,0,0,0,0,0,0,0,13,
scooby_state_400660|15|1 0,13,0,0,0,0,0,0,0,0,0,0,0,0,0,13,
scooby_state_400660|63|1 0,13,0,0,0,0,0,0,0,0,0,0,0,0,0,13,
scooby_state_400611|14|-2 13,0,0,0,0,0,0,0,0,0,0,0,0,0,0,13,
scooby_state_40073d|21|-2 0,12,0,0,0,0,0,0,0,0,0,0,0,0,0,12,
scooby_state_400611|48|-2 12,0,0,0,0,0,0,0,0,0,0,0,0,0,0,12,
scooby_state_40073d|3|-2 0,12,0,0,0,0,0,0,0,0,0,0,0,0,0,12,
scooby_state_40073d|24|-2 0,12,0,0,0,0,0,0,0,0,0,0,0,0,0,12,
scooby_state_400637|51|-1 0,12,0,0,0,0,0,0,0,0,0,0,0,0,0,12,
scooby_state_400611|18|-2 12,0,0,0,0,0,0,0,0,0,0,0,0,0,0,12,
scooby_state_400660|19|1 0,12,0,0,0,0,0,0,0,0,0,0,0,0,0,12,
scooby_state_400637|21|-1 0,11,0,0,0,0,0,0,0,0,0,0,1,0,0,12,
scooby_state_40073d|1|-2 0,12,0,0,0,0,0,0,0,0,0,0,0,0,0,12,
scooby_state_40073d|33|-2 0,12,0,0,0,0,0,0,0,0,0,0,0,0,0,12,
scooby_state_400660|49|1 0,12,0,0,0,0,0,0,0,0,0,0,0,0,0,12,
scooby_state_400660|39|1 0,12,0,0,0,0,0,0,0,0,0,0,0,0,0,12,
scooby_state_400611|38|-2 12,0,0,0,0,0,0,0,0,0,0,0,0,0,0,12,
scooby_state_40073d|2|-2 0,12,0,0,0,0,0,0,0,0,0,0,0,0,0,12,
scooby_state_400769|37|-1 12,0,0,0,0,0,0,0,0,0,0,0,0,0,0,12,
scooby_state_400637|41|-1 0,12,0,0,0,0,0,0,0,0,0,0,0,0,0,12,
scooby_state_40073d|43|-2 0,11,0,0,0,0,0,0,0,0,0,0,0,0,0,11,
scooby_state_40073d|53|-2 0,11,0,0,0,0,0,0,0,0,0,0,0,0,0,11,
scooby_state_400769|48|-1 11,0,0,0,0,0,0,0,0,0,0,0,0,0,0,11,
scooby_state_40073d|35|-2 0,11,0,0,0,0,0,0,0,0,0,0,0,0,0,11,
scooby_state_40073d|42|-2 0,11,0,0,0,0,0,0,0,0,0,0,0,0,0,11,
scooby_state_400769|27|-1 11,0,0,0,0,0,0,0,0,0,0,0,0,0,0,11,
scooby_state_400769|59|-1 11,0,0,0,0,0,0,0,0,0,0,0,0,0,0,11,
scooby_state_40073d|4|-2 0,11,0,0,0,0,0,0,0,0,0,0,0,0,0,11,
scooby_state_40073d|22|-2 0,11,0,0,0,0,0,0,0,0,0,0,0,0,0,11,
scooby_state_40073d|55|-2 0,11,0,0,0,0,0,0,0,0,0,0,0,0,0,11,
scooby_state_400769|26|-1 10,0,0,0,0,0,0,0,0,0,0,0,0,0,0,10,
scooby_state_40073d|34|-2 0,10,0,0,0,0,0,0,0,0,0,0,0,0,0,10,
scooby_state_400769|16|-1 10,0,0,0,0,0,0,0,0,0,0,0,0,0,0,10,
scooby_state_40073d|23|-2 0,10,0,0,0,0,0,0,0,0,0,0,0,0,0,10,
scooby_state_400769|47|-1 10,0,0,0,0,0,0,0,0,0,0,0,0,0,0,10,
scooby_state_40073d|11|-2 0,10,0,0,0,0,0,0,0,0,0,0,0,0,0,10,
scooby_state_400769|15|-1 10,0,0,0,0,0,0,0,0,0,0,0,0,0,0,10,
scooby_state_40073d|15|-2 0,9,0,0,0,0,0,0,0,0,0,0,0,0,0,9,
scooby_state_40073d|10|-2 0,9,0,0,0,0,0,0,0,0,0,0,0,0,0,9,
scooby_state_40073d|36|-2 0,9,0,0,0,0,0,0,0,0,0,0,0,0,0,9,
scooby_state_40073d|54|-2 0,9,0,0,0,0,0,0,0,0,0,0,0,0,0,9,
scooby_state_400769|36|-1 9,0,0,0,0,0,0,0,0,0,0,0,0,0,0,9,
scooby_state_40073d|45|-2 0,9,0,0,0,0,0,0,0,0,0,0,0,0,0,9,
scooby_state_40073d|57|-2 0,9,0,0,0,0,0,0,0,0,0,0,0,0,0,9,
scooby_state_40073d|13|-2 0,9,0,0,0,0,0,0,0,0,0,0,0,0,0,9,
scooby_state_40073d|25|-2 0,9,0,0,0,0,0,0,0,0,0,0,0,0,0,9,
scooby_state_40073d|47|-2 0,9,0,0,0,0,0,0,0,0,0,0,0,0,0,9,
scooby_state_40073d|32|-2 0,9,0,0,0,0,0,0,0,0,0,0,0,0,0,9,
scooby_state_40073d|31|-2 0,9,0,0,0,0,0,0,0,0,0,0,0,0,0,9,
scooby_state_40073d|60|-2 0,9,0,0,0,0,0,0,0,0,0,0,0,0,0,9,
scooby_state_40073d|37|-2 0,9,0,0,0,0,0,0,0,0,0,0,0,0,0,9,
scooby_state_40073d|12|-2 0,9,0,0,0,0,0,0,0,0,0,0,0,0,0,9,
scooby_state_400769|53|-1 8,0,0,0,0,0,0,0,0,0,0,0,0,0,0,8,
scooby_state_40073d|41|-2 0,8,0,0,0,0,0,0,0,0,0,0,0,0,0,8,
scooby_state_40073d|40|-2 0,8,0,0,0,0,0,0,0,0,0,0,0,0,0,8,
scooby_state_4007a4|0|-1 0,8,0,0,0,0,0,0,0,0,0,0,0,0,0,8,
scooby_state_40073d|30|-2 0,8,0,0,0,0,0,0,0,0,0,0,0,0,0,8,
scooby_state_400769|38|-1 8,0,0,0,0,0,0,0,0,0,0,0,0,0,0,8,
scooby_state_40073d|48|-2 0,8,0,0,0,0,0,0,0,0,0,0,0,0,0,8,
scooby_state_40073d|16|-2 0,8,0,0,0,0,0,0,0,0,0,0,0,0,0,8,
scooby_state_40073d|14|-2 0,8,0,0,0,0,0,0,0,0,0,0,0,0,0,8,
scooby_state_40073d|51|-2 0,8,0,0,0,0,0,0,0,0,0,0,0,0,0,8,
scooby_state_400769|29|-1 8,0,0,0,0,0,0,0,0,0,0,0,0,0,0,8,
scooby_state_400769|17|-1 8,0,0,0,0,0,0,0,0,0,0,0,0,0,0,8,
scooby_state_40073d|44|-2 0,8,0,0,0,0,0,0,0,0,0,0,0,0,0,8,
scooby_state_400769|58|-1 8,0,0,0,0,0,0,0,0,0,0,0,0,0,0,8,
scooby_state_40073d|52|-2 0,8,0,0,0,0,0,0,0,0,0,0,0,0,0,8,
scooby_state_40073d|56|-2 0,8,0,0,0,0,0,0,0,0,0,0,0,0,0,8,
scooby_state_400769|46|-1 7,0,0,0,0,0,0,0,0,0,0,0,0,0,0,7,
scooby_state_400769|56|-1 7,0,0,0,0,0,0,0,0,0,0,0,0,0,0,7,
scooby_state_40073d|29|-2 0,7,0,0,0,0,0,0,0,0,0,0,0,0,0,7,
scooby_state_40073d|17|-2 0,7,0,0,0,0,0,0,0,0,0,0,0,0,0,7,
scooby_state_400769|21|-1 7,0,0,0,0,0,0,0,0,0,0,0,0,0,0,7,
scooby_state_40073d|50|-2 0,7,0,0,0,0,0,0,0,0,0,0,0,0,0,7,
scooby_state_400769|3|-1 7,0,0,0,0,0,0,0,0,0,0,0,0,0,0,7,
scooby_state_40073d|59|-2 0,7,0,0,0,0,0,0,0,0,0,0,0,0,0,7,
scooby_state_400769|4|-1 7,0,0,0,0,0,0,0,0,0,0,0,0,0,0,7,
scooby_state_40073d|58|-2 0,7,0,0,0,0,0,0,0,0,0,0,0,0,0,7,
scooby_state_400769|60|-1 7,0,0,0,0,0,0,0,0,0,0,0,0,0,0,7,
scooby_state_400769|24|-1 7,0,0,0,0,0,0,0,0,0,0,0,0,0,0,7,
scooby_state_40073d|9|-2 0,7,0,0,0,0,0,0,0,0,0,0,0,0,0,7,
scooby_state_40073d|19|-2 0,7,0,0,0,0,0,0,0,0,0,0,0,0,0,7,
scooby_state_400769|57|-1 7,0,0,0,0,0,0,0,0,0,0,0,0,0,0,7,
scooby_state_400769|33|-1 7,0,0,0,0,0,0,0,0,0,0,0,0,0,0,7,
scooby_state_400611|35|-2 6,0,0,0,0,0,0,0,0,0,0,0,0,0,0,6,
scooby_state_400637|14|-1 0,6,0,0,0,0,0,0,0,0,0,0,0,0,0,6,
scooby_state_40073d|61|-2 0,6,0,0,0,0,0,0,0,0,0,0,0,0,0,6,
scooby_state_400758|0|-2 0,6,0,0,0,0,0,0,0,0,0,0,0,0,0,6,
scooby_state_400769|49|-1 6,0,0,0,0,0,0,0,0,0,0,0,0,0,0,6,
scooby_state_400769|28|-1 6,0,0,0,0,0,0,0,0,0,0,0,0,0,0,6,
scooby_state_40073d|28|-2 0,6,0,0,0,0,0,0,0,0,0,0,0,0,0,6,
scooby_state_400769|12|-1 6,0,0,0,0,0,0,0,0,0,0,0,0,0,0,6,
scooby_state_400769|23|-1 6,0,0,0,0,0,0,0,0,0,0,0,0,0,0,6,
scooby_state_40073d|5|-2 0,6,0,0,0,0,0,0,0,0,0,0,0,0,0,6,
scooby_state_400769|44|-1 6,0,0,0,0,0,0,0,0,0,0,0,0,0,0,6,
scooby_state_40073d|27|-2 0,6,0,0,0,0,0,0,0,0,0,0,0,0,0,6,
scooby_state_400611|25|-2 6,0,0,0,0,0,0,0,0,0,0,0,0,0,0,6,
scooby_state_400769|20|-1 6,0,0,0,0,0,0,0,0,0,0,0,0,0,0,6,
scooby_state_400611|11|-2 6,0,0,0,0,0,0,0,0,0,0,0,0,0,0,6,
scooby_state_400660|42|1 0,6,0,0,0,0,0,0,0,0,0,0,0,0,0,6,
scooby_state_400660|56|1 0,6,0,0,0,0,0,0,0,0,0,0,0,0,0,6,
scooby_state_400637|4|-1 0,6,0,0,0,0,0,0,0,0,0,0,0,0,0,6,
scooby_state_40073d|6|-2 0,6,0,0,0,0,0,0,0,0,0,0,0,0,0,6,
scooby_state_400769|51|-1 6,0,0,0,0,0,0,0,0,0,0,0,0,0,0,6,
scooby_state_400660|12|1 0,6,0,0,0,0,0,0,0,0,0,0,0,0,0,6,
scooby_state_40073d|26|-2 0,6,0,0,0,0,0,0,0,0,0,0,0,0,0,6,
scooby_state_400637|58|-1 0,6,0,0,0,0,0,0,0,0,0,0,0,0,0,6,
scooby_state_400769|40|-1 6,0,0,0,0,0,0,0,0,0,0,0,0,0,0,6,
scooby_state_400769|32|-1 6,0,0,0,0,0,0,0,0,0,0,0,0,0,0,6,
scooby_state_400611|31|-2 6,0,0,0,0,0,0,0,0,0,0,0,0,0,0,6,
scooby_state_40073d|7|-2 0,6,0,0,0,0,0,0,0,0,0,0,0,0,0,6,
scooby_state_400660|32|1 0,6,0,0,0,0,0,0,0,0,0,0,0,0,0,6,
scooby_state_400611|21|-2 6,0,0,0,0,0,0,0,0,0,0,0,0,0,0,6,
scooby_state_40073d|20|-2 0,6,0,0,0,0,0,0,0,0,0,0,0,0,0,6,
scooby_state_400769|25|-1 6,0,0,0,0,0,0,0,0,0,0,0,0,0,0,6,
scooby_state_400769|39|-1 6,0,0,0,0,0,0,0,0,0,0,0,0,0,0,6,
scooby_state_400660|26|1 0,6,0,0,0,0,0,0,0,0,0,0,0,0,0,6,
scooby_state_400637|28|-1 0,6,0,0,0,0,0,0,0,0,0,0,0,0,0,6,
scooby_state_400660|52|1 0,6,0,0,0,0,0,0,0,0,0,0,0,0,0,6,
scooby_state_400660|36|1 0,6,0,0,0,0,0,0,0,0,0,0,0,0,0,6,
scooby_state_400611|45|-2 5,0,0,0,0,0,0,0,0,0,1,0,0,0,0,6,
scooby_state_400660|46|1 0,6,0,0,0,0,0,0,0,0,0,0,0,0,0,6,
scooby_state_400637|48|-1 0,6,0,0,0,0,0,0,0,0,0,0,0,0,0,6,
scooby_state_400611|55|-2 6,0,0,0,0,0,0,0,0,0,0,0,0,0,0,6,
scooby_state_400660|2|1 0,6,0,0,0,0,0,0,0,0,0,0,0,0,0,6,
scooby_state_400637|24|-1 0,6,0,0,0,0,0,0,0,0,0,0,0,0,0,6,
scooby_state_400637|34|-1 0,6,0,0,0,0,0,0,0,0,0,0,0,0,0,6,
scooby_state_400611|41|-2 6,0,0,0,0,0,0,0,0,0,0,0,0,0,0,6,
scooby_state_400637|44|-1 0,6,0,0,0,0,0,0,0,0,0,0,0,0,0,6,
scooby_state_400611|51|-2 6,0,0,0,0,0,0,0,0,0,0,0,0,0,0,6,
scooby_state_400660|22|1 0,6,0,0,0,0,0,0,0,0,0,0,0,0,0,6,
scooby_state_400769|14|-1 6,0,0,0,0,0,0,0,0,0,0,0,0,0,0,6,
scooby_state_400637|38|-1 0,6,0,0,0,0,0,0,0,0,0,0,0,0,0,6,
scooby_state_400637|54|-1 0,6,0,0,0,0,0,0,0,0,0,0,0,0,0,6,
scooby_state_400611|1|-2 6,0,0,0,0,0,0,0,0,0,0,0,0,0,0,6,
scooby_state_40073d|8|-2 0,6,0,0,0,0,0,0,0,0,0,0,0,0,0,6,
scooby_state_400611|15|-2 5,0,0,0,0,0,0,0,0,0,0,0,0,0,0,5,
scooby_state_400611|49|-2 5,0,0,0,0,0,0,0,0,0,0,0,0,0,0,5,
scooby_state_400637|52|-1 0,5,0,0,0,0,0,0,0,0,0,0,0,0,0,5,
scooby_state_400611|59|-2 5,0,0,0,0,0,0,0,0,0,0,0,0,0,0,5,
scooby_state_400769|18|-1 5,0,0,0,0,0,0,0,0,0,0,0,0,0,0,5,
scooby_state_400637|62|-1 0,5,0,0,0,0,0,0,0,0,0,0,0,0,0,5,
scooby_state_400769|41|-1 5,0,0,0,0,0,0,0,0,0,0,0,0,0,0,5,
scooby_state_400660|6|1 0,5,0,0,0,0,0,0,0,0,0,0,0,0,0,5,
scooby_state_400611|7|-2 5,0,0,0,0,0,0,0,0,0,0,0,0,0,0,5,
scooby_state_400769|11|-1 5,0,0,0,0,0,0,0,0,0,0,0,0,0,0,5,
scooby_state_400637|18|-1 0,5,0,0,0,0,0,0,0,0,0,0,0,0,0,5,
scooby_state_400769|42|-1 5,0,0,0,0,0,0,0,0,0,0,0,0,0,0,5,
scooby_state_400769|50|-1 5,0,0,0,0,0,0,0,0,0,0,0,0,0,0,5,
scooby_state_400660|8|1 0,5,0,0,0,0,0,0,0,0,0,0,0,0,0,5,
scooby_state_400769|52|-1 5,0,0,0,0,0,0,0,0,0,0,0,0,0,0,5,
scooby_state_400611|17|-2 5,0,0,0,0,0,0,0,0,0,0,0,0,0,0,5,
scooby_state_400769|61|-1 5,0,0,0,0,0,0,0,0,0,0,0,0,0,0,5,
scooby_state_40073d|39|-2 0,5,0,0,0,0,0,0,0,0,0,0,0,0,0,5,
scooby_state_400637|10|-1 0,5,0,0,0,0,0,0,0,0,0,0,0,0,0,5,
scooby_state_400660|50|1 0,5,0,0,0,0,0,0,0,0,0,0,0,0,0,5,
scooby_state_400660|60|1 0,5,0,0,0,0,0,0,0,0,0,0,0,0,0,5,
scooby_state_400637|30|-1 0,5,0,0,0,0,0,0,0,0,0,0,0,0,0,5,
scooby_state_400660|28|1 0,4,0,0,0,0,1,0,0,0,0,0,0,0,0,5,
scooby_state_400769|30|-1 5,0,0,0,0,0,0,0,0,0,0,0,0,0,0,5,
scooby_state_400611|5|-2 5,0,0,0,0,0,0,0,0,0,0,0,0,0,0,5,
scooby_state_400637|20|-1 0,5,0,0,0,0,0,0,0,0,0,0,0,0,0,5,
scooby_state_400660|62|1 0,5,0,0,0,0,0,0,0,0,0,0,0,0,0,5,
scooby_state_40073d|38|-2 0,5,0,0,0,0,0,0,0,0,0,0,0,0,0,5,
scooby_state_40073d|18|-2 0,5,0,0,0,0,0,0,0,0,0,0,0,0,0,5,
scooby_state_400660|18|1 0,5,0,0,0,0,0,0,0,0,0,0,0,0,0,5,
scooby_state_400769|10|-1 5,0,0,0,0,0,0,0,0,0,0,0,0,0,0,5,
scooby_state_400611|61|-2 5,0,0,0,0,0,0,0,0,0,0,0,0,0,0,5,
scooby_state_400769|62|-1 5,0,0,0,0,0,0,0,0,0,0,0,0,0,0,5,
scooby_state_400660|16|1 0,5,0,0,0,0,0,0,0,0,0,0,0,0,0,5,
scooby_state_400637|8|-1 0,5,0,0,0,0,0,0,0,0,0,0,0,0,0,5,
scooby_state_400611|27|-2 5,0,0,0,0,0,0,0,0,0,0,0,0,0,0,5,
scooby_state_400769|35|-1 5,0,0,0,0,0,0,0,0,0,0,0,0,0,0,5,
scooby_state_400637|50|-1 0,4,0,0,0,0,0,0,0,0,0,0,0,0,0,4,
scooby_state_40073d|62|2 0,4,0,0,0,0,0,0,0,0,0,0,0,0,0,4,
scooby_state_400637|6|-1 0,4,0,0,0,0,0,0,0,0,0,0,0,0,0,4,
scooby_state_400769|45|-1 4,0,0,0,0,0,0,0,0,0,0,0,0,0,0,4,
scooby_state_400637|22|-1 0,4,0,0,0,0,0,0,0,0,0,0,0,0,0,4,
scooby_state_400660|4|1 0,4,0,0,0,0,0,0,0,0,0,0,0,0,0,4,
scooby_state_400611|3|-2 4,0,0,0,0,0,0,0,0,0,0,0,0,0,0,4,
scooby_state_400637|40|-1 0,4,0,0,0,0,0,0,0,0,0,0,0,0,0,4,
scooby_state_400769|9|-1 4,0,0,0,0,0,0,0,0,0,0,0,0,0,0,4,
scooby_state_400637|42|-1 0,4,0,0,0,0,0,0,0,0,0,0,0,0,0,4,
scooby_state_400637|60|-1 0,4,0,0,0,0,0,0,0,0,0,0,0,0,0,4,
scooby_state_400660|30|1 0,4,0,0,0,0,0,0,0,0,0,0,0,0,0,4,
scooby_state_400611|57|-2 4,0,0,0,0,0,0,0,0,0,0,0,0,0,0,4,
scooby_state_400660|38|1 0,4,0,0,0,0,0,0,0,0,0,0,0,0,0,4,
scooby_state_400611|39|-2 4,0,0,0,0,0,0,0,0,0,0,0,0,0,0,4,
scooby_state_400660|10|1 0,4,0,0,0,0,0,0,0,0,0,0,0,0,0,4,
scooby_state_400611|47|-2 4,0,0,0,0,0,0,0,0,0,0,0,0,0,0,4,
scooby_state_400660|48|1 0,4,0,0,0,0,0,0,0,0,0,0,0,0,0,4,
scooby_state_400660|58|1 0,4,0,0,0,0,0,0,0,0,0,0,0,0,0,4,
scooby_state_400611|37|-2 4,0,0,0,0,0,0,0,0,0,0,0,0,0,0,4,
scooby_state_400769|13|-1 4,0,0,0,0,0,0,0,0,0,0,0,0,0,0,4,
scooby_state_400769|55|-1 4,0,0,0,0,0,0,0,0,0,0,0,0,0,0,4,
scooby_state_40077f|1|-1 0,4,0,0,0,0,0,0,0,0,0,0,0,0,0,4,
scooby_state_400789|2|1 4,0,0,0,0,0,0,0,0,0,0,0,0,0,0,4,
scooby_state_400769|54|-1 4,0,0,0,0,0,0,0,0,0,0,0,0,0,0,4,
scooby_state_400637|0|-1 0,4,0,0,0,0,0,0,0,0,0,0,0,0,0,4,
scooby_state_400660|20|1 0,4,0,0,0,0,0,0,0,0,0,0,0,0,0,4,
scooby_state_400769|5|-1 4,0,0,0,0,0,0,0,0,0,0,0,0,0,0,4,
scooby_state_400660|40|1 0,4,0,0,0,0,0,0,0,0,0,0,0,0,0,4,
scooby_state_400611|9|-2 4,0,0,0,0,0,0,0,0,0,0,0,0,0,0,4,
scooby_state_400d3f|0|0 1,3,0,0,0,0,0,0,0,0,0,0,0,0,0,4,
scooby_state_400637|32|-1 0,4,0,0,0,0,0,0,0,0,0,0,0,0,0,4,
scooby_state_400611|29|-2 4,0,0,0,0,0,0,0,0,0,0,0,0,0,0,4,
scooby_state_40079a|1|-1 1,3,0,0,0,0,0,0,0,0,0,0,0,0,0,4,
scooby_state_400611|19|-2 4,0,0,0,0,0,0,0,0,0,0,0,0,0,0,4,
scooby_state_400637|12|-1 0,4,0,0,0,0,0,0,0,0,0,0,0,0,0,4,
scooby_state_400769|43|-1 4,0,0,0,0,0,0,0,0,0,0,0,0,0,0,4,
scooby_state_400611|43|-2 3,0,0,0,0,0,0,0,0,0,0,0,0,0,0,3,
scooby_state_400769|34|-1 3,0,0,0,0,0,0,0,0,0,0,0,0,0,0,3,
scooby_state_400611|33|-2 3,0,0,0,0,0,0,0,0,0,0,0,0,0,0,3,
scooby_state_400660|24|1 0,3,0,0,0,0,0,0,0,0,0,0,0,0,0,3,
scooby_state_400637|16|-1 0,3,0,0,0,0,0,0,0,0,0,0,0,0,0,3,
scooby_state_400660|14|1 0,3,0,0,0,0,0,0,0,0,0,0,0,0,0,3,
scooby_state_400660|34|1 0,3,0,0,0,0,0,0,0,0,0,0,0,0,0,3,
scooby_state_400637|46|-1 0,3,0,0,0,0,0,0,0,0,0,0,0,0,0,3,
scooby_state_400769|0|-1 3,0,0,0,0,0,0,0,0,0,0,0,0,0,0,3,
scooby_state_4007a4|1|-1 0,3,0,0,0,0,0,0,0,0,0,0,0,0,0,3,
scooby_state_400637|26|-1 0,3,0,0,0,0,0,0,0,0,0,0,0,0,0,3,
scooby_state_400660|0|-1 0,3,0,0,0,0,0,0,0,0,0,0,0,0,0,3,
scooby_state_40073d|49|-2 0,3,0,0,0,0,0,0,0,0,0,0,0,0,0,3,
scooby_state_400611|53|-2 3,0,0,0,0,0,0,0,0,0,0,0,0,0,0,3,
scooby_state_400769|31|-1 3,0,0,0,0,0,0,0,0,0,0,0,0,0,0,3,
scooby_state_400611|63|2 3,0,0,0,0,0,0,0,0,0,0,0,0,0,0,3,
scooby_state_40079a|0|-1 0,3,0,0,0,0,0,0,0,0,0,0,0,0,0,3,
scooby_state_400769|19|-1 3,0,0,0,0,0,0,0,0,0,0,0,0,0,0,3,
scooby_state_400637|36|-1 0,3,0,0,0,0,0,0,0,0,0,0,0,0,0,3,
scooby_state_400789|5|1 3,0,0,0,0,0,0,0,0,0,0,0,0,0,0,3,
scooby_state_40073d|63|2 0,2,0,0,0,0,1,0,0,0,0,0,0,0,0,3,
scooby_state_400611|13|-2 3,0,0,0,0,0,0,0,0,0,0,0,0,0,0,3,
scooby_state_400c00|63|1 0,3,0,0,0,0,0,0,0,0,0,0,0,0,0,3,
scooby_state_400769|0|-2 3,0,0,0,0,0,0,0,0,0,0,0,0,0,0,3,
scooby_state_400bd0|62|0 0,3,0,0,0,0,0,0,0,0,0,0,0,0,0,3,
scooby_state_400637|2|-1 0,3,0,0,0,0,0,0,0,0,0,0,0,0,0,3,
scooby_state_400637|56|-1 0,3,0,0,0,0,0,0,0,0,0,0,0,0,0,3,
scooby_state_400660|54|1 0,3,0,0,0,0,0,0,0,0,0,0,0,0,0,3,
scooby_state_400660|44|1 0,3,0,0,0,0,0,0,0,0,0,0,0,0,0,3,
scooby_state_400769|22|-1 3,0,0,0,0,0,0,0,0,0,0,0,0,0,0,3,
scooby_state_400769|1|-1 3,0,0,0,0,0,0,0,0,0,0,0,0,0,0,3,
scooby_state_400611|23|-2 3,0,0,0,0,0,0,0,0,0,0,0,0,0,0,3,
scooby_state_400769|63|2 2,0,0,0,0,0,0,0,0,0,0,0,0,0,0,2,
scooby_state_400794|32|1 2,0,0,0,0,0,0,0,0,0,0,0,0,0,0,2,
scooby_state_4007ad|1|-1 2,0,0,0,0,0,0,0,0,0,0,0,0,0,0,2,
scooby_state_400789|4|1 2,0,0,0,0,0,0,0,0,0,0,0,0,0,0,2,
scooby_state_400774|0|-1 2,0,0,0,0,0,0,0,0,0,0,0,0,0,0,2,
scooby_state_40073d|0|-2 0,2,0,0,0,0,0,0,0,0,0,0,0,0,0,2,
scooby_state_40077f|43|-1 0,2,0,0,0,0,0,0,0,0,0,0,0,0,0,2,
scooby_state_400769|2|-1 2,0,0,0,0,0,0,0,0,0,0,0,0,0,0,2,
scooby_state_40078e|0|-1 2,0,0,0,0,0,0,0,0,0,0,0,0,0,0,2,
scooby_state_400794|62|1 2,0,0,0,0,0,0,0,0,0,0,0,0,0,0,2,
scooby_state_4007ad|0|-1 2,0,0,0,0,0,0,0,0,0,0,0,0,0,0,2,
scooby_state_40077f|36|-1 0,2,0,0,0,0,0,0,0,0,0,0,0,0,0,2,
scooby_state_400794|42|1 2,0,0,0,0,0,0,0,0,0,0,0,0,0,0,2,
scooby_state_400794|47|1 2,0,0,0,0,0,0,0,0,0,0,0,0,0,0,2,
scooby_state_400794|52|1 2,0,0,0,0,0,0,0,0,0,0,0,0,0,0,2,
scooby_state_400c08|48|0 1,0,0,0,0,0,0,0,0,0,0,0,0,0,0,1,
scooby_state_4006c2|27|1 1,0,0,0,0,0,0,0,0,0,0,0,0,0,0,1,
scooby_state_400794|57|1 1,0,0,0,0,0,0,0,0,0,0,0,0,0,0,1,
scooby_state_400600|24|-23 1,0,0,0,0,0,0,0,0,0,0,0,0,0,0,1,
scooby_state_400611|2|2 1,0,0,0,0,0,0,0,0,0,0,0,0,0,0,1,
scooby_state_4009c2|39|1 1,0,0,0,0,0,0,0,0,0,0,0,0,0,0,1,
scooby_state_400794|41|1 1,0,0,0,0,0,0,0,0,0,0,0,0,0,0,1,
scooby_state_400c43|49|1 1,0,0,0,0,0,0,0,0,0,0,0,0,0,0,1,
scooby_state_400794|58|1 1,0,0,0,0,0,0,0,0,0,0,0,0,0,0,1,
scooby_state_400e83|58|1 1,0,0,0,0,0,0,0,0,0,0,0,0,0,0,1,
scooby_state_400c15|63|0 1,0,0,0,0,0,0,0,0,0,0,0,0,0,0,1,
scooby_state_400794|51|1 1,0,0,0,0,0,0,0,0,0,0,0,0,0,0,1,
scooby_state_400742|29|1 1,0,0,0,0,0,0,0,0,0,0,0,0,0,0,1,
scooby_state_400a00|40|1 1,0,0,0,0,0,0,0,0,0,0,0,0,0,0,1,
scooby_state_400794|55|1 1,0,0,0,0,0,0,0,0,0,0,0,0,0,0,1,
scooby_state_400701|28|1 1,0,0,0,0,0,0,0,0,0,0,0,0,0,0,1,
scooby_state_400d01|52|1 1,0,0,0,0,0,0,0,0,0,0,0,0,0,0,1,
scooby_state_40077f|47|-1 0,1,0,0,0,0,0,0,0,0,0,0,0,0,0,1,
scooby_state_400789|3|1 1,0,0,0,0,0,0,0,0,0,0,0,0,0,0,1,
scooby_state_400794|37|1 1,0,0,0,0,0,0,0,0,0,0,0,0,0,0,1,
scooby_state_400a41|41|1 1,0,0,0,0,0,0,0,0,0,0,0,0,0,0,1,
scooby_state_40077f|42|-1 0,1,0,0,0,0,0,0,0,0,0,0,0,0,0,1,
scooby_state_400637|0|-4 0,1,0,0,0,0,0,0,0,0,0,0,0,0,0,1,
scooby_state_400794|35|1 1,0,0,0,0,0,0,0,0,0,0,0,0,0,0,1,
scooby_state_40077f|59|-1 0,1,0,0,0,0,0,0,0,0,0,0,0,0,0,1,
scooby_state_400774|0|-2 0,1,0,0,0,0,0,0,0,0,0,0,0,0,0,1,
scooby_state_400794|40|1 1,0,0,0,0,0,0,0,0,0,0,0,0,0,0,1,
scooby_state_400611|0|-1 1,0,0,0,0,0,0,0,0,0,0,0,0,0,0,1,
scooby_state_400794|25|1 1,0,0,0,0,0,0,0,0,0,0,0,0,0,0,1,
scooby_state_40077f|35|-1 0,1,0,0,0,0,0,0,0,0,0,0,0,0,0,1,
scooby_state_40077f|54|-1 0,1,0,0,0,0,0,0,0,0,0,0,0,0,0,1,
scooby_state_400794|43|1 1,0,0,0,0,0,0,0,0,0,0,0,0,0,0,1,
scooby_state_400794|61|1 1,0,0,0,0,0,0,0,0,0,0,0,0,0,0,1,
scooby_state_4007c3|31|1 1,0,0,0,0,0,0,0,0,0,0,0,0,0,0,1,
scooby_state_400ac4|43|1 1,0,0,0,0,0,0,0,0,0,0,0,0,0,0,1,
scooby_state_400d84|54|1 1,0,0,0,0,0,0,0,0,0,0,0,0,0,0,1,
scooby_state_400b91|33|1 1,0,0,0,0,0,0,0,0,0,0,0,0,0,0,1,
scooby_state_400794|46|1 1,0,0,0,0,0,0,0,0,0,0,0,0,0,0,1,
scooby_state_40068f|1|-1 1,0,0,0,0,0,0,0,0,0,0,0,0,0,0,1,
scooby_state_40077f|27|-1 0,1,0,0,0,0,0,0,0,0,0,0,0,0,0,1,
scooby_state_400bd0|62|-1 1,0,0,0,0,0,0,0,0,0,0,0,0,0,0,1,
scooby_state_400dc3|55|1 1,0,0,0,0,0,0,0,0,0,0,0,0,0,0,1,
scooby_state_400b00|44|1 1,0,0,0,0,0,0,0,0,0,0,0,0,0,0,1,
scooby_state_400794|54|1 1,0,0,0,0,0,0,0,0,0,0,0,0,0,0,1,
scooby_state_4006b1|26|-20 1,0,0,0,0,0,0,0,0,0,0,0,0,0,0,1,
scooby_state_400901|36|1 1,0,0,0,0,0,0,0,0,0,0,0,0,0,0,1,
scooby_state_400643|25|1 1,0,0,0,0,0,0,0,0,0,0,0,0,0,0,1,
scooby_state_400a82|42|1 1,0,0,0,0,0,0,0,0,0,0,0,0,0,0,1,
scooby_state_400982|38|1 1,0,0,0,0,0,0,0,0,0,0,0,0,0,0,1,
scooby_state_400784|30|1 1,0,0,0,0,0,0,0,0,0,0,0,0,0,0,1,
scooby_state_400794|31|1 1,0,0,0,0,0,0,0,0,0,0,0,0,0,0,1,
scooby_state_4008fc|35|-23 1,0,0,0,0,0,0,0,0,0,0,0,0,0,0,1,
scooby_state_400940|37|1 1,0,0,0,0,0,0,0,0,0,0,0,0,0,0,1,
scooby_state_400b40|45|1 1,0,0,0,0,0,0,0,0,0,0,0,0,0,0,1,
scooby_state_40077f|18|-1 0,1,0,0,0,0,0,0,0,0,0,0,0,0,0,1,
scooby_state_40077f|33|-1 0,1,0,0,0,0,0,0,0,0,0,0,0,0,0,1,
scooby_state_400794|38|1 1,0,0,0,0,0,0,0,0,0,0,0,0,0,0,1,
scooby_state_400bc0|47|15 1,0,0,0,0,0,0,0,0,0,0,0,0,0,0,1,
scooby_state_400c81|50|1 1,0,0,0,0,0,0,0,0,0,0,0,0,0,0,1,
scooby_state_400e44|57|1 1,0,0,0,0,0,0,0,0,0,0,0,0,0,0,1,
scooby_state_400cc4|51|1 1,0,0,0,0,0,0,0,0,0,0,0,0,0,0,1,
scooby_state_400a30|32|1 1,0,0,0,0,0,0,0,0,0,0,0,0,0,0,1,
scooby_state_40077f|51|-1 0,1,0,0,0,0,0,0,0,0,0,0,0,0,0,1,
scooby_state_400b81|46|1 1,0,0,0,0,0,0,0,0,0,0,0,0,0,0,1,
scooby_state_400801|32|1 1,0,0,0,0,0,0,0,0,0,0,0,0,0,0,1,
scooby_state_40098a|31|0 1,0,0,0,0,0,0,0,0,0,0,0,0,0,0,1,
scooby_state_400d47|53|1 1,0,0,0,0,0,0,0,0,0,0,0,0,0,0,1,
scooby_state_400e01|56|1 1,0,0,0,0,0,0,0,0,0,0,0,0,0,0,1,

scooby_action_0_deg_dist 0,7,0,0,0,0,0,0,0,0,0,0,0,0,0,0,
scooby_action_4_deg_dist 0,9,0,0,0,0,0,0,0,0,0,0,0,0,0,0,
scooby_action_3_deg_dist 0,3843,2542,0,6301,0,18464,0,0,0,0,0,0,0,0,0,
scooby_action_32_deg_dist 0,11,0,0,0,0,0,0,0,0,0,0,0,0,0,0,
scooby_action_5_deg_dist 0,8,0,0,0,0,0,0,0,0,0,0,0,0,0,0,
scooby_action_1_deg_dist 0,4070,3532,0,9221,0,30079,0,0,0,0,0,0,0,0,0,
scooby_action_30_deg_dist 0,11,0,0,0,0,0,0,0,0,0,0,0,0,0,0,
scooby_action_-3_deg_dist 0,5,0,0,0,0,0,0,0,0,0,0,0,0,0,0,
scooby_action_10_deg_dist 0,15,0,0,0,0,0,0,0,0,0,0,0,0,0,0,
scooby_action_-1_deg_dist 0,8,0,0,0,0,0,0,0,0,0,0,0,0,0,0,
scooby_action_23_deg_dist 0,12,0,0,0,0,0,0,0,0,0,0,0,0,0,0,
scooby_action_-6_deg_dist 0,5,0,0,0,0,0,0,0,0,0,0,0,0,0,0,
scooby_action_11_deg_dist 0,9,0,0,0,0,0,0,0,0,0,0,0,0,0,0,
scooby_action_22_deg_dist 0,12,0,0,0,0,0,0,0,0,0,0,0,0,0,0,
scooby_action_12_deg_dist 0,9,0,0,0,0,0,0,0,0,0,0,0,0,0,0,

scooby_track_called 78173
scooby_track_same_address 14885
scooby_track_evict 63032

scooby_reward_demand_called 78173
scooby_reward_demand_pt_not_found 17299
scooby_reward_demand_pt_found 60874
scooby_reward_demand_pt_found_total 60874
scooby_reward_demand_has_reward 0
scooby_reward_train_called 186
scooby_reward_assign_reward_called 63285
scooby_reward_no_pref 7
scooby_reward_incorrect 179
scooby_reward_correct_untimely 44865
scooby_reward_correct_timely 16009
scooby_reward_out_of_bounds 2225
scooby_reward_tracker_hit 0

scooby_reward_none_low_bw 7
scooby_reward_none_high_bw 0
scooby_reward_incorrect_low_bw 179
scooby_reward_incorrect_high_bw 0
scooby_reward_correct_untimely_low_bw 44865
scooby_reward_correct_untimely_high_bw 0
scooby_reward_correct_timely_low_bw 16009
scooby_reward_correct_timely_high_bw 0
scooby_reward_out_of_bounds_low_bw 2225
scooby_reward_out_of_bounds_high_bw 0
scooby_reward_tracker_hit_low_bw 0
scooby_reward_tracker_hit_high_bw 0

scooby_reward_1 0,174,25297,6376,738,0,
scooby_reward_3 0,3,19556,9580,1456,0,
scooby_reward_4 0,0,5,4,0,0,
scooby_reward_5 0,0,2,5,1,0,
scooby_reward_10 0,0,2,9,4,0,
scooby_reward_11 0,0,2,6,1,0,
scooby_reward_12 0,0,1,6,2,0,
scooby_reward_22 0,0,0,7,5,0,
scooby_reward_23 0,0,0,8,4,0,
scooby_reward_30 0,0,0,3,8,0,
scooby_reward_32 0,0,0,5,6,0,
scooby_reward_-1 0,1,0,0,0,0,
scooby_reward_-3 0,0,0,0,0,0,
scooby_reward_-6 0,1,0,0,0,0,
scooby_reward_0 7,0,0,0,0,0,

scooby_train_called 63031
scooby_train_compute_reward 186

scooby_register_fill_called 64101
scooby_register_fill_set 16014
scooby_register_fill_set_total 16014

scooby_register_prefetch_hit_called 111244
scooby_register_prefetch_hit_set 38417
scooby_register_prefetch_hit_set_total 38417

scooby_pref_issue_scooby 254738

learning_engine_featurewise.action.called 78173
learning_engine_featurewise.action.explore 141
learning_engine_featurewise.action.exploit 78032
learning_engine_featurewise.action.fallback 0
learning_engine_featurewise.action.dyn_fallback_saved_bw 0
learning_engine_featurewise.action.dyn_fallback_saved_bw_acc 389
learning_engine_featurewise.action.index_1_explored 9
learning_engine_featurewise.action.index_1_exploited 46893
learning_engine_featurewise.action.index_3_explored 11
learning_engine_featurewise.action.index_3_exploited 31139
learning_engine_featurewise.action.index_4_explored 9
learning_engine_featurewise.action.index_4_exploited 0
learning_engine_featurewise.action.index_5_explored 8
learning_engine_featurewise.action.index_5_exploited 0
learning_engine_featurewise.action.index_10_explored 15
learning_engine_featurewise.action.index_10_exploited 0
learning_engine_featurewise.action.index_11_explored 9
learning_engine_featurewise.action.index_11_exploited 0
learning_engine_featurewise.action.index_12_explored 9
learning_engine_featurewise.action.index_12_exploited 0
learning_engine_featurewise.action.index_22_explored 12
learning_engine_featurewise.action.index_22_exploited 0
learning_engine_featurewise.action.index_23_explored 12
learning_engine_featurewise.action.index_23_exploited 0
learning_engine_featurewise.action.index_30_explored 11
learning_engine_featurewise.action.index_30_exploited 0
learning_engine_featurewise.action.index_32_explored 11
learning_engine_featurewise.action.index_32_exploited 0
learning_engine_featurewise.action.index_-1_explored 8
learning_engine_featurewise.action.index_-1_exploited 0
learning_engine_featurewise.action.index_-3_explored 5
learning_engine_featurewise.action.index_-3_exploited 0
learning_engine_featurewise.action.index_-6_explored 5
learning_engine_featurewise.action.index_-6_exploited 0
learning_engine_featurewise.action.index_0_explored 7
learning_engine_featurewise.action.index_0_exploited 0
learning_engine_featurewise.learn.called 63031
learning_engine_featurewise.learn.su_skip_PC 0
learning_engine_featurewise.learn.su_skip_PC_Delta 0

learning_engine_featurewise.q_value_histogram.bucket_0 0
learning_engine_featurewise.q_value_histogram.bucket_1 0
learning_engine_featurewise.q_value_histogram.bucket_2 0
learning_engine_featurewise.q_value_histogram.bucket_3 0
learning_engine_featurewise.q_value_histogram.bucket_4 1382
learning_engine_featurewise.q_value_histogram.bucket_5 1419
learning_engine_featurewise.q_value_histogram.bucket_6 75231
learning_engine_featurewise.q_value_histogram.bucket_7 0

learning_engine_featurewise.consensus.total 78032
learning_engine_featurewise.consensus.feature_align_PC 78010
learning_engine_featurewise.consensus.feature_align_PC_ratio 1.00
learning_engine_featurewise.consensus.feature_align_PC_Delta 77544
learning_engine_featurewise.consensus.feature_align_PC_Delta_ratio 0.99
learning_engine_featurewise.consensus.feature_align_all 77522
learning_engine_featurewise.consensus.feature_align_all_ratio 0.99

learning_engine_featurewise.feature_PC_min_weight 1000000.00000000
learning_engine_featurewise.feature_PC_max_weight 0.00000000
learning_engine_featurewise.feature_PC_Delta_min_weight 1000000.00000000
learning_engine_featurewise.feature_PC_Delta_max_weight 0.00000000
unique_pcs 57
unique_pages 1225
unique_trigger_pcs 6
total_bitmaps_seen 0
unique_bitmaps_seen 0

scooby_bw_epochs 59198
scooby_bw_level_0 9980
scooby_bw_level_1 23025
scooby_bw_level_2 18401
scooby_bw_level_3 7792

scooby_ipc_epochs 0
scooby_ipc_level_0 0
scooby_ipc_level_1 0
scooby_ipc_level_2 0
scooby_ipc_level_3 0

scooby_cache_acc_epochs 14370
scooby_cache_acc_level_0 12
scooby_cache_acc_level_1 42
scooby_cache_acc_level_2 86
scooby_cache_acc_level_3 203
scooby_cache_acc_level_4 283
scooby_cache_acc_level_5 475
scooby_cache_acc_level_6 1068
scooby_cache_acc_level_7 1706
scooby_cache_acc_level_8 1894
scooby_cache_acc_level_9 8601

Channel_0_RQ_row_buffer_hit 64944
Channel_0_RQ_row_buffer_miss 217521
Channel_0_WQ_row_buffer_hit 36134
Channel_0_WQ_row_buffer_miss 162495
Channel_0_WQ_full 0
Channel_0_dbus_congested 355607

avg_congested_cycle 11

DRAM_bw_pochs 59198
DRAM_bw_level_0 9980
DRAM_bw_level_1 23025
DRAM_bw_level_2 18401
DRAM_bw_level_3 7792
