Original cmd-> /cluster/home/vlnitu/CA-Lab4-24-vlnitu/Pythia/bin/perceptron-no-multi-no-ship-1core --warmup_instructions=1000000 --simulation_instructions=10000000 --l2c_prefetcher_types=scooby --config=/cluster/home/vlnitu/CA-Lab4-24-vlnitu/Pythia/config/pythia.ini --mail-type=BEGIN,END  -traces /cluster/home/vlnitu/CA-Lab4-24-vlnitu/Pythia/traces/471.omnetpp-188B.champsimtrace.xz
*************************************************
   ChampSim Multicore Out-of-Order Simulator
   Last compiled: Nov 19 2024 20:10:11
*************************************************
parsing config file: /cluster/home/vlnitu/CA-Lab4-24-vlnitu/Pythia/config/pythia.ini
unable to parse section: , name: mail-type, value: BEGIN,END

trace_0 /cluster/home/vlnitu/CA-Lab4-24-vlnitu/Pythia/traces/471.omnetpp-188B.champsimtrace.xz
adding L2C_PREFETCHER: Scooby
Initialize SHIP state
warmup_instructions 1000000
simulation_instructions 10000000
champsim_seed 227
measure_ipc 0
measure_ipc_epoch 1000
measure_dram_bw 1
measure_dram_bw_epoch 256
measure_cache_acc 1
measure_cache_acc_epoch 1024
l1d_perfect 0
l2c_perfect 0
llc_perfect 0
l1d_semi_perfect 0
l2c_semi_perfect 0
llc_semi_perfect 0
semi_perfect_cache_page_buffer_size 64

num_cpus 1
cpu_freq 4000
dram_io_freq 2400
page_size 4096
block_size 64
max_read_per_cycle 8
max_fill_per_cycle 1
dram_channels 1
log2_dram_channels 0
dram_ranks 1
dram_banks 8
dram_rows 65536
dram_columns 128
dram_row_size 8
dram_size 4096
dram_pages 1048576

fetch_width 6
decode_width 6
exec_width 4
lq_width 2
sq_width 2
retire_width 4
scheduler_size 128
branch_mispredict_penalty 20
rob_size 256
lq_size 72
sq_size 56
num_instr_destinations_sparc 4
num_instr_destinations 2
num_instr_sources 4

itlb_set 16
itlb_way 8
itlb_rq_size 16
itlb_wq_size 16
itlb_pq_size 0
itlb_mshr_size 8
itlb_latency 1

dtlb_set 16
dtlb_way 4
dtlb_rq_size 16
dtlb_wq_size 16
dtlb_pq_size 0
dtlb_mshr_size 8
dtlb_latency 1

stlb_set 128
stlb_way 12
stlb_rq_size 32
stlb_wq_size 32
stlb_pq_size 0
stlb_mshr_size 16
stlb_latency 8

l1i_size 32
l1i_set 64
l1i_way 8
l1i_rq_size 64
l1i_wq_size 64
l1i_pq_size 8
l1i_mshr_size 8
l1i_latency 1

l1d_size 32
l1d_set 64
l1d_way 8
l1d_rq_size 64
l1d_wq_size 64
l1d_pq_size 8
l1d_mshr_size 16
l1d_latency 4

l2c_size 256
l2c_set 512
l2c_way 8
l2c_rq_size 32
l2c_wq_size 32
l2c_pq_size 32
l2c_mshr_size 32
l2c_latency 10

llc_size 2048
llc_set 2048
llc_way 16
llc_rq_size 32
llc_wq_size 32
llc_pq_size 32
llc_mshr_size 64
llc_latency 20

dram_channel_width 8
dram_wq_size 64
dram_rq_size 64
tRP 15
tRCD 15
tCAS 12.5
dram_dbus_turn_around_time 30
dram_write_high_wm 56
dram_write_low_wm 48
min_dram_writes_per_switch 16
dram_mtps 2400
dram_dbus_return_time 13

scooby_alpha 0.0065088
scooby_gamma 0.556301
scooby_epsilon 0.00182284
scooby_state_num_bits 10
scooby_max_states 1024
scooby_seed 200
scooby_policy EGreedy
scooby_learning_type SARSA
scooby_actions 1,3,4,5,10,11,12,22,23,30,32,-1,-3,-6,0,
scooby_max_actions 15
scooby_pt_size 256
scooby_st_size 64
scooby_max_pcs 5
scooby_max_offsets 5
scooby_max_deltas 5
scooby_reward_none -4
scooby_reward_incorrect -8
scooby_reward_correct_untimely 12
scooby_reward_correct_timely 20
scooby_brain_zero_init 0
scooby_enable_reward_all 0
scooby_enable_track_multiple 0
scooby_enable_reward_out_of_bounds 1
scooby_reward_out_of_bounds -12
scooby_state_type 1
scooby_state_hash_type 11
scooby_access_debug 0
scooby_print_access_debug 0
scooby_print_access_debug_pc deadbeef
scooby_print_access_debug_pc_count 0
scooby_print_trace 0
scooby_enable_state_action_stats 1
scooby_enable_reward_tracker_hit 0
scooby_reward_tracker_hit -2
scooby_enable_featurewise_engine 1
scooby_pref_degree 1
scooby_enable_dyn_degree 1
scooby_max_to_avg_q_thresholds 0.5,1,2,
scooby_dyn_degrees 1,2,4,4,
scooby_multi_deg_select_type 2
scooby_last_pref_offset_conf_thresholds 1,3,8,
scooby_dyn_degrees_type2 1,2,4,6,
scooby_action_tracker_size 2
scooby_high_bw_thresh 4
scooby_enable_hbw_reward 1
scooby_reward_hbw_correct_timely 20
scooby_reward_hbw_correct_untimely 12
scooby_reward_hbw_incorrect -14
scooby_reward_hbw_none -2
scooby_reward_hbw_out_of_bounds -12
scooby_reward_hbw_tracker_hit -2
scooby_last_pref_offset_conf_thresholds_hbw 1,3,8,
scooby_dyn_degrees_type2_hbw 1,2,4,6,

le_enable_trace 0
le_trace_interval 0
le_trace_file_name 
le_trace_state 0
le_enable_score_plot 0
le_plot_file_name 
le_plot_actions 
le_enable_action_trace 0
le_action_trace_interval 0
le_action_trace_name 
le_enable_action_plot 0

le_featurewise_active_features PC, PC_Delta
le_featurewise_num_tilings 3,3,
le_featurewise_num_tiles 128,128,
le_featurewise_hash_types 2,2,
le_featurewise_enable_tiling_offset 1,1,
le_featurewise_max_q_thresh 0.5
le_featurewise_enable_action_fallback 1
le_featurewise_feature_weights 1,1,
le_featurewise_enable_dynamic_weight 0
le_featurewise_weight_gradient 0.001
le_featurewise_disable_adjust_weight_all_features_align 1
le_featurewise_selective_update 0
le_featurewise_pooling_type 2
le_featurewise_enable_dyn_action_fallback 1
le_featurewise_bw_acc_check_level 1
le_featurewise_acc_thresh 2
le_featurewise_enable_trace 0
le_featurewise_trace_feature_type 0
le_featurewise_trace_feature 
le_featurewise_trace_interval 0
le_featurewise_trace_record_count 0
le_featurewise_trace_file_name 
le_featurewise_enable_score_plot 0
le_featurewise_plot_actions 
le_featurewise_plot_file_name 


Heartbeat CPU  0 instructions:    1000001 cycles:     650304 heartbeat IPC: 1.53774 cumulative IPC: 1.53774 (Simulation time: 0 hr 0 min 1 sec) 

Warmup complete CPU  0 instructions:    1000001 cycles:     650304 (Simulation time: 0 hr 0 min 1 sec) 

Heartbeat CPU  0 instructions:    2000001 cycles:    4660245 heartbeat IPC: 0.24938 cumulative IPC: 0.24938 (Simulation time: 0 hr 0 min 4 sec) 
Heartbeat CPU  0 instructions:    3000000 cycles:    8715231 heartbeat IPC: 0.24661 cumulative IPC: 0.24799 (Simulation time: 0 hr 0 min 6 sec) 
Heartbeat CPU  0 instructions:    4000000 cycles:   12247522 heartbeat IPC: 0.28310 cumulative IPC: 0.25868 (Simulation time: 0 hr 0 min 8 sec) 
Heartbeat CPU  0 instructions:    5000001 cycles:   15358963 heartbeat IPC: 0.32139 cumulative IPC: 0.27195 (Simulation time: 0 hr 0 min 10 sec) 
Heartbeat CPU  0 instructions:    6000000 cycles:   18910430 heartbeat IPC: 0.28157 cumulative IPC: 0.27382 (Simulation time: 0 hr 0 min 13 sec) 
Heartbeat CPU  0 instructions:    7000001 cycles:   23034289 heartbeat IPC: 0.24249 cumulative IPC: 0.26805 (Simulation time: 0 hr 0 min 15 sec) 
Heartbeat CPU  0 instructions:    8000000 cycles:   26815125 heartbeat IPC: 0.26449 cumulative IPC: 0.26753 (Simulation time: 0 hr 0 min 18 sec) 
Heartbeat CPU  0 instructions:    9000000 cycles:   30758586 heartbeat IPC: 0.25358 cumulative IPC: 0.26571 (Simulation time: 0 hr 0 min 20 sec) 
Heartbeat CPU  0 instructions:   10000001 cycles:   34379741 heartbeat IPC: 0.27616 cumulative IPC: 0.26683 (Simulation time: 0 hr 0 min 23 sec) 
Heartbeat CPU  0 instructions:   11000002 cycles:   37816088 heartbeat IPC: 0.29101 cumulative IPC: 0.26906 (Simulation time: 0 hr 0 min 25 sec) 
Finished CPU 0 instructions: 10000001 cycles: 37165784 cumulative IPC: 0.26906 (Simulation time: 0 hr 0 min 25 sec) 

ChampSim completed all CPUs

[ROI Statistics]
Core_0_instructions 10000001
Core_0_cycles 37165784
Core_0_IPC 0.26906

Core_0_branch_prediction_accuracy 97.33677
Core_0_branch_MPKI 4.84100
Core_0_average_ROB_occupancy_at_mispredict 112.98364

Core_0_L1D_total_access 3464952
Core_0_L1D_total_hit 3217344
Core_0_L1D_total_miss 247608
Core_0_L1D_loads 1898216
Core_0_L1D_load_hit 1683642
Core_0_L1D_load_miss 214574
Core_0_L1D_RFOs 1566736
Core_0_L1D_RFO_hit 1533702
Core_0_L1D_RFO_miss 33034
Core_0_L1D_prefetches 0
Core_0_L1D_prefetch_hit 0
Core_0_L1D_prefetch_miss 0
Core_0_L1D_writebacks 0
Core_0_L1D_writeback_hit 0
Core_0_L1D_writeback_miss 0
Core_0_L1D_prefetch_requested 0
Core_0_L1D_prefetch_dropped 0
Core_0_L1D_prefetch_issued 0
Core_0_L1D_prefetch_filled 0
Core_0_L1D_prefetch_useful 0
Core_0_L1D_prefetch_useless 0
Core_0_L1D_prefetch_late 0
Core_0_L1D_average_miss_latency 137.55257

Core_0_L1D_rq_access 2766895
Core_0_L1D_rq_forward 0
Core_0_L1D_rq_merged 833226
Core_0_L1D_rq_to_cache 1932058
Core_0_L1D_rq_full 0

Core_0_L1D_wq_access 1691068
Core_0_L1D_wq_forward 1611
Core_0_L1D_wq_merged 29211
Core_0_L1D_wq_to_cache 1661857
Core_0_L1D_wq_full 0

Core_0_L1D_pq_access 0
Core_0_L1D_pq_forward 0
Core_0_L1D_pq_merged 0
Core_0_L1D_pq_to_cache 0
Core_0_L1D_pq_full 0

Core_0_L1D_acc_epochs 32159
Core_0_L1D_acc_level_0 32159
Core_0_L1D_acc_level_1 0
Core_0_L1D_acc_level_2 0
Core_0_L1D_acc_level_3 0
Core_0_L1D_acc_level_4 0
Core_0_L1D_acc_level_5 0
Core_0_L1D_acc_level_6 0
Core_0_L1D_acc_level_7 0
Core_0_L1D_acc_level_8 0
Core_0_L1D_acc_level_9 0

Core_0_L1I_total_access 2797162
Core_0_L1I_total_hit 2796857
Core_0_L1I_total_miss 305
Core_0_L1I_loads 2797162
Core_0_L1I_load_hit 2796857
Core_0_L1I_load_miss 305
Core_0_L1I_RFOs 0
Core_0_L1I_RFO_hit 0
Core_0_L1I_RFO_miss 0
Core_0_L1I_prefetches 0
Core_0_L1I_prefetch_hit 0
Core_0_L1I_prefetch_miss 0
Core_0_L1I_writebacks 0
Core_0_L1I_writeback_hit 0
Core_0_L1I_writeback_miss 0
Core_0_L1I_prefetch_requested 0
Core_0_L1I_prefetch_dropped 0
Core_0_L1I_prefetch_issued 0
Core_0_L1I_prefetch_filled 0
Core_0_L1I_prefetch_useful 0
Core_0_L1I_prefetch_useless 0
Core_0_L1I_prefetch_late 0
Core_0_L1I_average_miss_latency 164.41639

Core_0_L1I_rq_access 10000105
Core_0_L1I_rq_forward 0
Core_0_L1I_rq_merged 7202863
Core_0_L1I_rq_to_cache 2797242
Core_0_L1I_rq_full 0

Core_0_L1I_wq_access 0
Core_0_L1I_wq_forward 0
Core_0_L1I_wq_merged 0
Core_0_L1I_wq_to_cache 0
Core_0_L1I_wq_full 0

Core_0_L1I_pq_access 0
Core_0_L1I_pq_forward 0
Core_0_L1I_pq_merged 0
Core_0_L1I_pq_to_cache 0
Core_0_L1I_pq_full 0

Core_0_L1I_acc_epochs 32159
Core_0_L1I_acc_level_0 32159
Core_0_L1I_acc_level_1 0
Core_0_L1I_acc_level_2 0
Core_0_L1I_acc_level_3 0
Core_0_L1I_acc_level_4 0
Core_0_L1I_acc_level_5 0
Core_0_L1I_acc_level_6 0
Core_0_L1I_acc_level_7 0
Core_0_L1I_acc_level_8 0
Core_0_L1I_acc_level_9 0

Core_0_L2C_total_access 520575
Core_0_L2C_total_hit 212118
Core_0_L2C_total_miss 308457
Core_0_L2C_loads 214872
Core_0_L2C_load_hit 68241
Core_0_L2C_load_miss 146631
Core_0_L2C_RFOs 33033
Core_0_L2C_RFO_hit 3163
Core_0_L2C_RFO_miss 29870
Core_0_L2C_prefetches 164935
Core_0_L2C_prefetch_hit 33563
Core_0_L2C_prefetch_miss 131372
Core_0_L2C_writebacks 107735
Core_0_L2C_writeback_hit 107151
Core_0_L2C_writeback_miss 584
Core_0_L2C_prefetch_requested 215610
Core_0_L2C_prefetch_dropped 0
Core_0_L2C_prefetch_issued 215610
Core_0_L2C_prefetch_filled 148445
Core_0_L2C_prefetch_useful 56207
Core_0_L2C_prefetch_useless 91269
Core_0_L2C_prefetch_late 9412
Core_0_L2C_average_miss_latency 180.13626

Core_0_L2C_rq_access 247913
Core_0_L2C_rq_forward 0
Core_0_L2C_rq_merged 0
Core_0_L2C_rq_to_cache 247905
Core_0_L2C_rq_full 0

Core_0_L2C_wq_access 107735
Core_0_L2C_wq_forward 8
Core_0_L2C_wq_merged 0
Core_0_L2C_wq_to_cache 107735
Core_0_L2C_wq_full 0

Core_0_L2C_pq_access 215610
Core_0_L2C_pq_forward 0
Core_0_L2C_pq_merged 1340
Core_0_L2C_pq_to_cache 214270
Core_0_L2C_pq_full 0

Core_0_L2C_acc_epochs 32159
Core_0_L2C_acc_level_0 3083
Core_0_L2C_acc_level_1 2878
Core_0_L2C_acc_level_2 4435
Core_0_L2C_acc_level_3 5749
Core_0_L2C_acc_level_4 5162
Core_0_L2C_acc_level_5 3897
Core_0_L2C_acc_level_6 2566
Core_0_L2C_acc_level_7 1519
Core_0_L2C_acc_level_8 909
Core_0_L2C_acc_level_9 1961

Core_0_LLC_total_access 408245
Core_0_LLC_total_hit 103450
Core_0_LLC_total_miss 304795
Core_0_LLC_loads 137554
Core_0_LLC_load_hit 27740
Core_0_LLC_load_miss 109814
Core_0_LLC_RFOs 29788
Core_0_LLC_RFO_hit 5427
Core_0_LLC_RFO_miss 24361
Core_0_LLC_prefetches 140531
Core_0_LLC_prefetch_hit 17606
Core_0_LLC_prefetch_miss 122925
Core_0_LLC_writebacks 100372
Core_0_LLC_writeback_hit 52677
Core_0_LLC_writeback_miss 47695
Core_0_LLC_prefetch_requested 0
Core_0_LLC_prefetch_dropped 0
Core_0_LLC_prefetch_issued 0
Core_0_LLC_prefetch_filled 139880
Core_0_LLC_prefetch_useful 1551
Core_0_LLC_prefetch_useless 133333
Core_0_LLC_prefetch_late 0
Core_0_LLC_average_miss_latency 148.91455

Core_0_LLC_rq_access 167342
Core_0_LLC_rq_forward 0
Core_0_LLC_rq_merged 0
Core_0_LLC_rq_to_cache 167342
Core_0_LLC_rq_full 0

Core_0_LLC_wq_access 100372
Core_0_LLC_wq_forward 0
Core_0_LLC_wq_merged 0
Core_0_LLC_wq_to_cache 100372
Core_0_LLC_wq_full 0

Core_0_LLC_pq_access 157857
Core_0_LLC_pq_forward 0
Core_0_LLC_pq_merged 0
Core_0_LLC_pq_to_cache 157857
Core_0_LLC_pq_full 0

Core_0_LLC_acc_epochs 36930
Core_0_LLC_acc_level_0 35075
Core_0_LLC_acc_level_1 1037
Core_0_LLC_acc_level_2 490
Core_0_LLC_acc_level_3 64
Core_0_LLC_acc_level_4 10
Core_0_LLC_acc_level_5 221
Core_0_LLC_acc_level_6 5
Core_0_LLC_acc_level_7 9
Core_0_LLC_acc_level_8 1
Core_0_LLC_acc_level_9 18

Core_0_major_page_fault 0
Core_0_minor_page_fault 16325

scooby_st_lookup 238292
scooby_st_hit 159315
scooby_st_evict 78913
scooby_st_insert 78977
scooby_st_streaming 0

scooby_predict_called 238292
scooby_predict_out_of_bounds 12252
scooby_predict_action_1 97920
scooby_predict_issue_action_1 81086
scooby_predict_hit_action_1 16834
scooby_predict_out_of_bounds_action_1 1469
scooby_predict_action_3 61432
scooby_predict_issue_action_3 59534
scooby_predict_hit_action_3 1898
scooby_predict_out_of_bounds_action_3 2985
scooby_predict_action_4 8203
scooby_predict_issue_action_4 7445
scooby_predict_hit_action_4 758
scooby_predict_out_of_bounds_action_4 564
scooby_predict_action_5 5490
scooby_predict_issue_action_5 5445
scooby_predict_hit_action_5 45
scooby_predict_out_of_bounds_action_5 384
scooby_predict_action_10 9271
scooby_predict_issue_action_10 5694
scooby_predict_hit_action_10 3577
scooby_predict_out_of_bounds_action_10 1529
scooby_predict_action_11 2469
scooby_predict_issue_action_11 2223
scooby_predict_hit_action_11 246
scooby_predict_out_of_bounds_action_11 487
scooby_predict_action_12 2509
scooby_predict_issue_action_12 2196
scooby_predict_hit_action_12 313
scooby_predict_out_of_bounds_action_12 515
scooby_predict_action_22 1116
scooby_predict_issue_action_22 1096
scooby_predict_hit_action_22 20
scooby_predict_out_of_bounds_action_22 562
scooby_predict_action_23 1121
scooby_predict_issue_action_23 1111
scooby_predict_hit_action_23 10
scooby_predict_out_of_bounds_action_23 600
scooby_predict_action_30 2021
scooby_predict_issue_action_30 1999
scooby_predict_hit_action_30 22
scooby_predict_out_of_bounds_action_30 1649
scooby_predict_action_32 816
scooby_predict_issue_action_32 802
scooby_predict_hit_action_32 14
scooby_predict_out_of_bounds_action_32 719
scooby_predict_action_-1 17415
scooby_predict_issue_action_-1 12549
scooby_predict_hit_action_-1 4866
scooby_predict_out_of_bounds_action_-1 250
scooby_predict_action_-3 6515
scooby_predict_issue_action_-3 5443
scooby_predict_hit_action_-3 1072
scooby_predict_out_of_bounds_action_-3 350
scooby_predict_action_-6 2362
scooby_predict_issue_action_-6 1660
scooby_predict_hit_action_-6 702
scooby_predict_out_of_bounds_action_-6 189
scooby_predict_action_0 7380
scooby_predict_issue_action_0 0
scooby_predict_hit_action_0 0
scooby_predict_out_of_bounds_action_0 0
scooby_predict_multi_deg_called 15884
scooby_predict_predicted 215610
scooby_predict_multi_deg 27327
scooby_predict_multi_deg_2 15011
scooby_predict_multi_deg_3 5360
scooby_predict_multi_deg_4 5005
scooby_predict_multi_deg_5 998
scooby_predict_multi_deg_6 953
scooby_predict_multi_deg_7 0
scooby_predict_multi_deg_8 0
scooby_predict_multi_deg_9 0
scooby_predict_multi_deg_10 0
scooby_predict_multi_deg_11 0
scooby_predict_multi_deg_12 0
scooby_predict_multi_deg_13 0
scooby_predict_multi_deg_14 0
scooby_predict_multi_deg_15 0
scooby_predict_multi_deg_16 0

scooby_selected_deg_1 172399
scooby_selected_deg_2 9821
scooby_selected_deg_3 0
scooby_selected_deg_4 4845
scooby_selected_deg_5 0
scooby_selected_deg_6 1218
scooby_selected_deg_7 0
scooby_selected_deg_8 0
scooby_selected_deg_9 0
scooby_selected_deg_10 0
scooby_selected_deg_11 0
scooby_selected_deg_12 0
scooby_selected_deg_13 0
scooby_selected_deg_14 0
scooby_selected_deg_15 0
scooby_selected_deg_16 0

scooby_state_45435a|24|0 210,8,1,0,3,1,1,1,4,2,1,33,2,1,3,271,
scooby_state_454351|39|0 225,2,0,0,0,1,1,0,1,1,1,1,0,0,2,235,
scooby_state_45435a|42|0 167,7,2,1,1,2,2,1,0,0,2,40,1,1,4,231,
scooby_state_454351|41|0 215,3,1,1,0,0,0,1,1,1,0,1,1,3,2,230,
scooby_state_45435a|54|0 172,6,0,1,0,2,1,2,2,0,0,37,0,2,0,225,
scooby_state_454351|5|0 197,1,2,0,1,0,3,1,1,0,2,5,2,5,5,225,
scooby_state_454351|9|0 214,1,0,1,1,1,0,0,0,0,0,2,2,0,2,224,
scooby_state_45435a|39|0 168,7,1,1,1,0,1,1,0,0,0,36,2,0,1,219,
scooby_state_454351|16|0 192,0,4,2,2,1,3,0,1,0,1,4,2,0,4,216,
scooby_state_454351|46|0 192,4,2,0,0,2,3,2,0,0,0,4,1,1,2,213,
scooby_state_454351|13|0 190,3,1,1,1,2,2,2,0,0,2,1,1,0,6,212,
scooby_state_45435a|15|0 162,5,0,3,1,0,0,2,0,0,0,34,1,1,2,211,
scooby_state_454351|54|0 192,0,0,0,1,1,0,2,1,2,4,3,0,1,3,210,
scooby_state_45435a|58|0 146,6,0,2,1,0,4,2,0,0,3,38,0,2,4,208,
scooby_state_45435a|11|0 160,7,2,0,1,1,1,0,2,2,1,30,0,0,1,208,
scooby_state_454351|52|0 191,2,2,2,1,0,0,2,1,0,1,1,1,3,0,207,
scooby_state_45435a|17|0 139,5,1,2,1,0,0,0,1,2,2,51,1,1,0,206,
scooby_state_45435a|38|0 157,1,0,2,0,1,0,2,2,0,2,36,0,0,3,206,
scooby_state_454351|14|0 186,1,1,2,1,3,2,1,0,1,0,1,1,2,4,206,
scooby_state_454351|40|0 187,0,1,4,0,1,2,1,0,0,1,5,1,0,2,205,
scooby_state_454351|32|0 185,2,1,0,1,0,0,4,1,0,2,3,3,0,2,204,
scooby_state_454351|58|0 186,2,0,3,2,0,1,3,0,0,1,3,0,0,1,202,
scooby_state_45435a|35|0 141,5,0,3,0,0,2,2,1,0,1,40,0,4,3,202,
scooby_state_454351|56|0 185,1,1,1,1,0,0,1,1,1,2,2,1,0,5,202,
scooby_state_45435a|22|0 156,2,1,1,0,0,1,1,1,2,0,33,0,2,2,202,
scooby_state_454351|61|0 190,5,0,0,1,1,0,0,0,2,0,0,0,1,2,202,
scooby_state_45435a|57|0 158,7,1,0,0,3,0,0,0,1,0,28,1,1,1,201,
scooby_state_454351|0|0 184,1,1,0,2,0,1,1,1,1,1,4,1,0,3,201,
scooby_state_454351|17|0 191,1,3,1,0,0,0,1,0,1,0,2,0,0,1,201,
scooby_state_454351|30|0 184,1,1,1,1,0,1,0,1,2,0,3,0,1,3,199,
scooby_state_45435a|31|0 152,4,1,1,1,1,2,0,0,0,2,30,1,1,2,198,
scooby_state_45435a|48|0 146,2,1,2,3,0,1,1,0,0,0,35,2,3,1,197,
scooby_state_45435a|41|0 151,4,0,0,0,0,2,2,1,3,0,30,2,0,1,196,
scooby_state_454351|19|0 169,1,1,1,5,1,0,0,1,1,1,2,1,1,7,192,
scooby_state_45435a|52|0 145,7,0,2,2,1,0,0,1,2,0,28,0,0,2,190,
scooby_state_454351|50|0 176,0,0,2,0,1,0,2,1,1,0,2,1,2,2,190,
scooby_state_45435a|59|0 141,6,0,0,0,1,3,2,3,0,3,24,1,0,5,189,
scooby_state_454351|24|0 178,0,0,1,0,0,1,3,0,1,0,2,0,1,2,189,
scooby_state_454351|33|0 170,0,3,1,0,1,0,1,0,1,1,3,2,2,1,186,
scooby_state_45435a|56|0 134,6,1,1,3,2,0,0,1,2,0,32,1,1,2,186,
scooby_state_45435a|5|0 132,6,1,0,1,0,1,1,0,0,0,42,1,0,1,186,
scooby_state_45435a|13|0 132,9,1,1,1,1,1,1,0,0,1,32,1,2,3,186,
scooby_state_45435a|26|0 139,5,1,1,1,1,1,1,2,0,0,29,1,0,3,185,
scooby_state_45435a|37|0 148,7,0,0,0,2,0,0,0,0,1,26,0,0,1,185,
scooby_state_45435a|36|0 126,5,1,2,0,1,2,5,0,0,0,39,2,0,2,185,
scooby_state_454351|18|0 159,1,1,3,2,0,1,0,2,2,1,4,2,2,5,185,
scooby_state_45435a|20|0 144,10,0,0,0,0,1,0,3,1,0,25,0,0,0,184,
scooby_state_45435a|18|0 139,4,1,3,4,1,0,1,1,1,1,22,1,0,2,181,
scooby_state_45435a|9|0 136,4,0,2,1,3,0,1,0,0,2,25,1,1,5,181,
scooby_state_45435a|8|0 139,3,1,0,0,0,0,0,0,2,0,33,1,1,0,180,
scooby_state_454351|20|0 167,1,1,1,0,1,0,0,0,1,0,2,0,1,4,179,
scooby_state_45435a|0|0 134,5,0,0,1,1,2,1,2,1,3,26,1,2,0,179,
scooby_state_45435a|7|0 124,2,1,3,0,1,1,0,0,1,1,40,2,0,2,178,
scooby_state_45435a|62|0 135,8,2,1,1,0,1,0,1,0,1,28,0,0,0,178,
scooby_state_454351|37|0 166,2,1,1,1,1,1,0,1,1,0,1,0,0,2,178,
scooby_state_454351|47|0 161,0,0,1,0,1,3,1,1,0,2,2,1,1,3,177,
scooby_state_45435a|61|0 130,3,0,0,1,0,2,1,0,2,2,33,2,0,1,177,
scooby_state_45435a|32|0 127,6,0,0,0,1,0,2,2,1,0,35,1,0,2,177,
scooby_state_454351|48|0 163,2,1,0,0,0,1,1,2,0,0,2,0,0,4,176,
scooby_state_45435a|60|0 123,10,0,2,2,0,0,1,0,1,0,33,2,0,2,176,
scooby_state_454351|38|0 165,3,3,0,1,1,0,0,0,1,0,1,0,0,1,176,
scooby_state_454351|36|0 148,2,2,2,2,1,1,0,2,0,2,3,1,2,6,174,
scooby_state_45435a|30|0 124,5,3,0,0,0,2,0,1,0,0,34,0,3,1,173,
scooby_state_454351|62|0 158,0,0,0,0,2,1,1,2,1,1,0,1,0,5,172,
scooby_state_454351|15|0 155,0,3,0,1,4,0,2,0,1,0,2,0,0,4,172,
scooby_state_45435a|46|0 109,1,0,1,2,2,3,0,1,2,0,43,3,3,2,172,
scooby_state_45435a|40|0 114,3,1,2,1,0,0,1,1,1,1,45,0,0,1,171,
scooby_state_454351|34|0 150,1,0,2,0,2,2,1,0,1,2,4,1,0,4,170,
scooby_state_45435a|12|0 132,4,1,2,1,0,1,0,0,1,2,22,1,0,3,170,
scooby_state_454351|31|0 157,3,0,1,2,1,0,0,0,1,0,1,1,0,3,170,
scooby_state_45435a|4|0 130,5,0,0,1,2,1,0,0,0,1,23,2,2,2,169,
scooby_state_454351|7|0 157,0,2,1,0,0,1,1,0,1,0,2,1,1,2,169,
scooby_state_45435a|51|0 116,4,1,0,1,3,1,1,1,0,1,35,2,3,0,169,
scooby_state_454351|60|0 158,0,0,0,0,0,0,0,2,1,0,1,0,1,5,168,
scooby_state_454351|49|0 150,3,2,0,0,2,0,0,1,2,1,3,0,1,3,168,
scooby_state_45435a|28|0 128,2,1,0,2,1,0,0,0,2,2,24,1,1,3,167,
scooby_state_454351|26|0 148,1,0,0,0,1,1,1,1,3,2,5,1,0,3,167,
scooby_state_454351|10|0 155,2,0,0,2,0,1,0,1,2,1,3,0,0,0,167,
scooby_state_454351|23|0 145,3,1,0,1,1,2,2,0,3,1,2,1,1,2,165,
scooby_state_45435a|6|0 119,4,1,0,1,1,1,1,1,1,1,30,2,1,1,165,
scooby_state_45435a|50|0 109,5,0,1,0,1,0,1,5,0,1,39,0,0,2,164,
scooby_state_454351|42|0 144,3,0,3,3,2,2,1,1,1,1,2,1,0,0,164,
scooby_state_454351|12|0 145,3,1,0,1,1,0,1,0,3,0,1,0,1,6,163,
scooby_state_454351|27|0 139,3,0,1,2,1,1,1,2,1,2,3,1,1,5,163,
scooby_state_45435a|2|0 112,5,1,0,1,1,0,1,1,1,1,37,0,1,1,163,
scooby_state_45435a|29|0 119,4,1,2,0,1,1,1,2,1,1,25,0,1,4,163,
scooby_state_454351|11|0 147,2,1,1,2,0,0,0,2,0,0,3,2,1,1,162,
scooby_state_45435a|53|0 124,0,0,1,1,0,1,1,1,1,1,28,1,0,1,161,
scooby_state_45435a|27|0 122,3,1,2,0,0,1,1,0,2,1,23,0,2,2,160,
scooby_state_45435a|45|0 109,7,3,3,1,2,1,2,0,0,1,28,0,0,2,159,
scooby_state_454351|1|0 145,2,1,0,2,0,0,0,2,0,1,1,0,0,5,159,
scooby_state_454351|63|0 145,1,0,2,0,0,0,1,2,2,0,3,1,1,1,159,
scooby_state_45435a|16|0 111,7,2,1,1,0,2,2,1,0,0,30,0,0,1,158,
scooby_state_454351|35|0 142,1,2,1,1,1,2,1,0,0,0,2,1,1,2,157,
scooby_state_45435a|43|0 119,7,1,0,0,0,1,1,1,0,0,20,1,1,4,156,
scooby_state_45435a|3|0 114,9,2,0,0,0,0,0,1,3,2,22,1,1,1,156,
scooby_state_45435a|1|0 118,8,0,3,0,0,1,0,1,0,1,15,5,0,2,154,
scooby_state_454351|8|0 146,0,1,0,0,1,0,1,1,0,1,0,0,0,3,154,
scooby_state_454351|29|0 138,2,2,0,1,1,2,1,0,1,0,1,1,2,1,153,
scooby_state_45435a|19|0 101,8,2,1,2,1,1,0,0,1,3,26,2,1,4,153,
scooby_state_454351|22|0 138,1,1,2,0,0,0,0,2,1,1,4,0,2,1,153,
scooby_state_454349|0|0 118,5,0,2,4,1,1,3,1,1,3,4,4,1,4,152,
scooby_state_454351|2|0 140,1,2,0,0,0,2,0,0,0,1,2,2,1,1,152,
scooby_state_454351|28|0 143,0,1,0,1,0,1,1,0,0,0,1,2,0,2,152,
scooby_state_45435a|23|0 103,4,1,3,1,2,0,0,3,0,0,31,2,1,1,152,
scooby_state_45435a|44|0 107,6,0,2,1,0,1,0,0,1,1,30,0,0,2,151,
scooby_state_45435a|25|0 110,7,0,0,2,1,0,0,0,1,0,28,1,1,0,151,
scooby_state_454351|44|0 140,1,0,0,1,1,2,1,0,0,0,1,0,2,2,151,
scooby_state_454351|4|0 132,2,2,0,2,1,0,2,1,0,0,1,1,2,3,149,
scooby_state_454351|57|0 128,3,2,1,1,3,1,0,1,1,2,2,1,0,2,148,
scooby_state_454351|45|0 131,3,0,2,1,1,4,0,1,0,0,1,2,0,2,148,
scooby_state_45435a|63|0 110,3,1,0,0,0,0,2,0,2,0,29,0,0,0,147,
scooby_state_45435a|47|0 97,7,3,0,1,0,2,0,1,1,1,32,0,0,2,147,
scooby_state_45435a|14|0 108,2,2,0,1,0,0,2,0,2,0,28,0,1,1,147,
scooby_state_454351|3|0 128,1,0,0,1,2,1,1,0,3,1,4,0,1,2,145,
scooby_state_45435a|21|0 99,3,0,0,2,1,0,0,1,2,0,34,0,1,1,144,
scooby_state_45435a|55|0 111,4,2,0,1,0,0,1,0,0,0,21,0,0,3,143,
scooby_state_454351|6|0 124,1,0,3,1,1,1,0,1,0,1,2,2,2,3,142,
scooby_state_454351|25|0 127,2,2,1,0,0,1,1,1,0,0,0,2,1,3,141,
scooby_state_45435a|34|0 99,3,2,0,0,0,1,0,1,1,2,29,1,1,0,140,
scooby_state_454351|53|0 127,0,2,0,1,0,0,0,1,0,2,1,0,2,4,140,
scooby_state_454351|43|0 128,1,0,1,0,0,0,0,0,0,0,2,1,0,0,133,
scooby_state_454351|21|0 119,1,0,1,1,1,2,0,1,0,1,2,1,1,2,133,
scooby_state_454351|55|0 121,0,1,0,0,1,1,0,0,1,0,3,1,0,2,131,
scooby_state_45435a|49|0 101,2,0,2,0,0,0,1,0,0,0,19,2,0,1,128,
scooby_state_45435a|33|0 102,4,0,0,0,0,0,0,0,3,0,19,0,0,0,128,
scooby_state_454351|59|0 113,0,1,1,0,1,0,0,1,1,0,3,1,0,4,126,
scooby_state_45435a|10|0 95,5,1,0,0,0,1,0,2,0,0,18,0,0,3,125,
scooby_state_454351|51|0 118,0,1,1,0,0,0,0,0,0,1,0,1,1,1,124,
scooby_state_457dd2|25|0 0,117,0,0,0,0,0,0,0,0,0,0,0,0,0,117,
scooby_state_45df3c|57|8 1,115,0,0,0,0,0,0,0,0,0,0,0,1,0,117,
scooby_state_457dd2|1|0 0,108,0,0,0,0,0,0,0,0,0,0,0,0,0,108,
scooby_state_45df3c|46|8 2,105,0,0,0,0,0,0,0,0,0,0,0,0,0,107,
scooby_state_46267c|0|0 103,2,1,0,0,0,0,0,0,0,0,0,0,0,0,106,
scooby_state_45df3c|43|8 1,104,0,0,0,1,0,0,0,0,0,0,0,0,0,106,
scooby_state_43a5de|2|0 1,8,1,88,2,0,1,0,0,0,1,0,0,1,3,106,
scooby_state_45df3c|11|8 2,103,0,0,0,0,0,0,0,0,0,0,0,0,0,105,
scooby_state_45df3c|36|8 3,101,0,0,1,0,0,0,0,0,0,0,0,0,0,105,
scooby_state_457dd2|4|0 0,104,0,0,0,0,0,0,0,0,0,0,0,0,0,104,
scooby_state_46267c|1|0 102,1,1,0,0,0,0,0,0,0,0,0,0,0,0,104,
scooby_state_43a5de|0|0 0,7,1,88,0,1,0,1,1,0,1,0,1,1,2,104,
scooby_state_43a5de|3|0 0,6,0,91,0,2,0,1,0,1,0,1,1,0,1,104,
scooby_state_45df3c|44|8 0,103,1,0,0,0,0,0,0,0,0,0,0,0,0,104,
scooby_state_457dd2|10|0 0,104,0,0,0,0,0,0,0,0,0,0,0,0,0,104,
scooby_state_457dd2|13|0 1,102,0,0,0,0,0,0,0,0,0,0,0,0,0,103,
scooby_state_45df3c|17|8 1,101,0,0,0,0,0,0,0,0,0,0,0,0,0,102,
scooby_state_45df3c|0|0 0,100,1,0,0,0,0,0,0,0,0,0,0,0,0,101,
scooby_state_45df3c|16|8 2,99,0,0,0,0,0,0,0,0,0,0,0,0,0,101,
scooby_state_45df3c|40|8 3,97,0,0,0,0,0,0,0,0,0,0,0,0,0,100,
scooby_state_45df3c|47|8 1,98,0,0,0,0,0,0,0,0,1,0,0,0,0,100,
scooby_state_45df3c|26|8 0,100,0,0,0,0,0,0,0,0,0,0,0,0,0,100,
scooby_state_457dd2|21|0 0,100,0,0,0,0,0,0,0,0,0,0,0,0,0,100,
scooby_state_45df3c|55|8 1,96,0,0,0,0,0,0,0,0,0,0,0,0,0,97,
scooby_state_40e900|46|1 96,0,1,0,0,0,0,0,0,0,0,0,0,0,0,97,
scooby_state_43a5de|4|0 0,6,1,84,0,0,1,0,0,1,0,1,0,1,2,97,
scooby_state_454372|63|0 59,4,0,3,3,1,4,3,0,3,3,2,1,4,7,97,
scooby_state_45df3c|22|8 0,97,0,0,0,0,0,0,0,0,0,0,0,0,0,97,
scooby_state_457dd2|22|0 1,96,0,0,0,0,0,0,0,0,0,0,0,0,0,97,
scooby_state_454372|22|-2 72,12,0,0,1,1,1,1,0,1,0,4,0,2,2,97,
scooby_state_45df3c|42|8 2,94,0,0,0,0,0,0,0,0,0,0,0,0,0,96,
scooby_state_45436e|63|0 60,2,4,4,1,0,1,3,4,3,0,6,5,1,2,96,
scooby_state_45df3c|24|8 4,92,0,0,0,0,0,0,0,0,0,0,0,0,0,96,
scooby_state_45df3c|51|8 2,94,0,0,0,0,0,0,0,0,0,0,0,0,0,96,
scooby_state_457dd2|42|0 0,95,0,0,0,0,0,0,0,0,0,0,0,0,0,95,
scooby_state_43a5de|1|0 0,7,0,81,2,0,0,0,0,2,0,1,0,1,1,95,
scooby_state_46267c|2|0 90,4,1,0,0,0,0,0,0,0,0,0,0,0,0,95,
scooby_state_45df3c|38|8 1,93,0,0,0,0,0,0,0,0,0,0,0,0,0,94,
scooby_state_45df3c|35|8 2,91,0,0,0,0,0,0,0,0,0,0,0,0,0,93,
scooby_state_457dd2|28|0 0,92,0,0,0,0,0,0,0,0,0,0,0,0,0,92,
scooby_state_45df3c|30|8 1,89,0,0,0,1,0,0,0,0,0,0,0,0,0,91,
scooby_state_457dd2|15|0 0,91,0,0,0,0,0,0,0,0,0,0,0,0,0,91,
scooby_state_45df3c|15|8 1,89,0,0,0,0,0,0,0,0,1,0,0,0,0,91,
scooby_state_45df3c|12|8 2,89,0,0,0,0,0,0,0,0,0,0,0,0,0,91,
scooby_state_45df3c|39|8 2,89,0,0,0,0,0,0,0,0,0,0,0,0,0,91,
scooby_state_457dd2|34|0 1,89,0,0,0,0,0,0,0,0,0,0,0,0,0,90,
scooby_state_457dd2|14|0 1,89,0,0,0,0,0,0,0,0,0,0,0,0,0,90,
scooby_state_454372|35|-2 73,3,1,1,0,1,1,0,0,2,1,2,2,1,2,90,
scooby_state_44ba08|6|1 1,89,0,0,0,0,0,0,0,0,0,0,0,0,0,90,
scooby_state_457dd2|16|0 0,90,0,0,0,0,0,0,0,0,0,0,0,0,0,90,
scooby_state_40e900|0|0 89,0,0,0,0,0,0,0,0,0,0,0,0,0,0,89,
scooby_state_44ba08|14|1 1,87,0,0,0,0,0,0,0,0,0,0,1,0,0,89,
scooby_state_45df3c|54|8 3,86,0,0,0,0,0,0,0,0,0,0,0,0,0,89,
scooby_state_45df3c|21|8 3,86,0,0,0,0,0,0,0,0,0,0,0,0,0,89,
scooby_state_45df3c|27|8 2,87,0,0,0,0,0,0,0,0,0,0,0,0,0,89,
scooby_state_45df3c|34|8 1,87,0,0,0,0,0,0,0,0,0,0,0,0,0,88,
scooby_state_457dd2|19|0 0,88,0,0,0,0,0,0,0,0,0,0,0,0,0,88,
scooby_state_457dd2|11|0 0,88,0,0,0,0,0,0,0,0,0,0,0,0,0,88,
scooby_state_457dd2|30|0 0,86,0,1,0,0,0,0,0,0,0,0,1,0,0,88,
scooby_state_40e900|59|1 88,0,0,0,0,0,0,0,0,0,0,0,0,0,0,88,
scooby_state_457dd2|9|0 0,88,0,0,0,0,0,0,0,0,0,0,0,0,0,88,
scooby_state_44ba08|22|1 2,86,0,0,0,0,0,0,0,0,0,0,0,0,0,88,
scooby_state_45df3c|63|8 2,85,0,0,0,0,0,0,0,1,0,0,0,0,0,88,
scooby_state_44ba08|61|1 0,87,0,0,0,0,0,0,0,0,0,0,0,0,0,87,
scooby_state_457dd2|20|0 0,86,0,0,0,0,0,0,0,0,0,0,0,0,1,87,
scooby_state_44ba08|46|1 1,85,0,0,0,0,0,0,0,0,0,0,1,0,0,87,
scooby_state_45df3c|58|8 2,84,0,0,0,0,0,0,0,0,0,0,0,0,1,87,
scooby_state_45df3c|32|8 1,86,0,0,0,0,0,0,0,0,0,0,0,0,0,87,
scooby_state_45df3c|23|8 1,86,0,0,0,0,0,0,0,0,0,0,0,0,0,87,
scooby_state_45df3c|52|8 2,85,0,0,0,0,0,0,0,0,0,0,0,0,0,87,
scooby_state_40e900|38|1 85,0,0,0,0,0,1,0,0,0,0,0,0,0,0,86,
scooby_state_454372|36|-2 64,7,2,2,1,1,2,3,0,0,0,2,0,1,1,86,
scooby_state_45df3c|13|8 2,84,0,0,0,0,0,0,0,0,0,0,0,0,0,86,
scooby_state_457dd2|6|0 0,86,0,0,0,0,0,0,0,0,0,0,0,0,0,86,
scooby_state_457dd2|27|0 0,85,0,0,0,0,0,0,0,0,0,0,0,0,0,85,
scooby_state_454349|3|0 67,0,0,0,4,1,2,2,2,2,0,0,0,1,4,85,
scooby_state_40e900|42|1 85,0,0,0,0,0,0,0,0,0,0,0,0,0,0,85,
scooby_state_502740|35|0 33,7,6,5,2,3,4,3,3,0,2,6,3,4,4,85,
scooby_state_45df3c|62|8 0,84,0,0,0,1,0,0,0,0,0,0,0,0,0,85,
scooby_state_45df3c|60|8 1,84,0,0,0,0,0,0,0,0,0,0,0,0,0,85,
scooby_state_45df3c|29|8 1,83,0,0,0,0,1,0,0,0,0,0,0,0,0,85,
scooby_state_457dd2|23|0 0,84,0,0,0,0,0,0,0,0,0,0,0,0,0,84,
scooby_state_457dd2|55|0 1,83,0,0,0,0,0,0,0,0,0,0,0,0,0,84,
scooby_state_457dd2|50|0 0,83,0,0,0,1,0,0,0,0,0,0,0,0,0,84,
scooby_state_440970|39|0 0,21,0,0,0,0,0,0,0,0,0,0,63,0,0,84,
scooby_state_40e900|29|1 83,0,0,0,0,0,0,0,0,0,0,0,0,0,0,83,
scooby_state_46c443|16|0 58,5,0,2,1,2,1,1,1,2,2,4,1,0,3,83,
scooby_state_457dd2|2|0 0,82,0,0,0,0,0,0,0,0,0,1,0,0,0,83,
scooby_state_454372|4|-2 63,7,1,2,0,1,1,2,1,1,1,1,1,0,1,83,
scooby_state_40e900|25|1 83,0,0,0,0,0,0,0,0,0,0,0,0,0,0,83,
scooby_state_45df3c|28|8 3,80,0,0,0,0,0,0,0,0,0,0,0,0,0,83,
scooby_state_45df3c|50|8 1,82,0,0,0,0,0,0,0,0,0,0,0,0,0,83,
scooby_state_454372|58|-2 57,16,0,1,1,0,0,0,0,5,0,0,2,1,0,83,
scooby_state_43a5de|5|0 0,5,0,69,3,0,0,0,2,0,0,0,1,0,2,82,
scooby_state_457dd2|3|0 1,81,0,0,0,0,0,0,0,0,0,0,0,0,0,82,
scooby_state_44ba08|17|1 1,81,0,0,0,0,0,0,0,0,0,0,0,0,0,82,
scooby_state_44ba08|10|1 1,80,0,0,0,0,0,0,0,0,0,0,0,0,0,81,
scooby_state_457dd2|40|0 0,81,0,0,0,0,0,0,0,0,0,0,0,0,0,81,
scooby_state_502740|5|0 27,4,5,6,5,6,2,4,7,0,3,4,1,5,2,81,
scooby_state_454372|34|-2 59,9,1,0,1,1,0,0,1,1,1,2,1,2,2,81,
scooby_state_45df3c|56|8 3,78,0,0,0,0,0,0,0,0,0,0,0,0,0,81,
scooby_state_457dd2|5|0 0,81,0,0,0,0,0,0,0,0,0,0,0,0,0,81,
scooby_state_45df3c|49|8 2,78,0,0,0,0,0,0,1,0,0,0,0,0,0,81,
scooby_state_45df3c|8|8 0,80,0,0,0,0,0,0,0,0,0,0,0,0,0,80,
scooby_state_454349|4|0 59,1,2,1,4,0,0,2,2,0,2,1,0,2,4,80,
scooby_state_457dd2|38|0 1,79,0,0,0,0,0,0,0,0,0,0,0,0,0,80,
scooby_state_40e900|54|1 80,0,0,0,0,0,0,0,0,0,0,0,0,0,0,80,
scooby_state_40e900|60|1 80,0,0,0,0,0,0,0,0,0,0,0,0,0,0,80,
scooby_state_44a9ef|39|0 0,55,0,0,0,0,0,0,0,0,0,25,0,0,0,80,
scooby_state_44ba08|50|1 1,79,0,0,0,0,0,0,0,0,0,0,0,0,0,80,
scooby_state_454372|21|-2 66,6,0,2,0,1,1,1,0,0,1,0,0,1,0,79,
scooby_state_45df3c|31|8 3,76,0,0,0,0,0,0,0,0,0,0,0,0,0,79,
scooby_state_502740|33|0 36,2,5,1,3,3,4,3,1,1,3,5,2,7,3,79,
scooby_state_452f40|6|0 79,0,0,0,0,0,0,0,0,0,0,0,0,0,0,79,
scooby_state_45df3c|20|8 1,77,0,0,0,0,0,0,1,0,0,0,0,0,0,79,
scooby_state_44ba08|25|1 1,77,0,0,0,0,0,0,0,0,0,0,0,0,0,78,
scooby_state_502740|1|0 29,6,4,4,4,0,7,3,6,1,1,4,4,1,4,78,
scooby_state_40e900|17|1 78,0,0,0,0,0,0,0,0,0,0,0,0,0,0,78,
scooby_state_502740|46|0 31,3,4,0,2,4,5,6,5,0,2,5,4,6,1,78,
scooby_state_40e900|8|1 78,0,0,0,0,0,0,0,0,0,0,0,0,0,0,78,
scooby_state_507080|22|2 59,19,0,0,0,0,0,0,0,0,0,0,0,0,0,78,
scooby_state_454372|40|-2 59,5,0,1,0,1,3,1,0,1,1,1,1,1,3,78,
scooby_state_454372|41|-2 53,12,1,1,0,0,1,0,1,2,0,3,0,2,1,77,
scooby_state_44ba08|26|1 1,75,0,0,0,1,0,0,0,0,0,0,0,0,0,77,
scooby_state_44ba08|63|1 1,76,0,0,0,0,0,0,0,0,0,0,0,0,0,77,
scooby_state_454372|30|-2 57,10,0,2,0,1,1,0,1,0,0,2,1,1,1,77,
scooby_state_44ba08|39|1 1,76,0,0,0,0,0,0,0,0,0,0,0,0,0,77,
scooby_state_502740|22|0 29,5,4,2,2,3,7,5,3,1,1,6,2,5,2,77,
scooby_state_44ba08|2|1 0,77,0,0,0,0,0,0,0,0,0,0,0,0,0,77,
scooby_state_502740|30|0 28,4,6,5,1,6,6,3,5,4,0,3,2,1,3,77,
scooby_state_454372|23|-2 60,8,0,1,1,0,0,0,1,2,0,2,0,1,1,77,
scooby_state_40e900|5|1 76,0,0,0,0,0,0,0,0,0,0,0,0,0,0,76,
scooby_state_454372|1|-2 58,9,1,1,0,1,0,0,2,0,1,0,1,0,2,76,
scooby_state_454372|29|-2 61,7,0,0,0,0,1,2,1,0,1,2,0,0,1,76,
scooby_state_457dd2|17|0 0,76,0,0,0,0,0,0,0,0,0,0,0,0,0,76,
scooby_state_43ac7a|14|0 1,51,0,0,12,0,0,0,0,0,0,12,0,0,0,76,
scooby_state_454372|57|-2 60,9,0,0,0,1,0,1,1,0,1,1,0,0,2,76,
scooby_state_45df3c|61|8 1,75,0,0,0,0,0,0,0,0,0,0,0,0,0,76,
scooby_state_502740|59|0 38,4,6,6,3,1,3,3,4,0,1,0,3,2,2,76,
scooby_state_40e900|14|1 76,0,0,0,0,0,0,0,0,0,0,0,0,0,0,76,
scooby_state_44ba08|40|1 0,75,0,0,0,0,0,0,0,0,0,0,0,0,0,75,
scooby_state_454372|52|-2 51,11,1,1,0,1,2,0,2,0,0,1,1,0,4,75,
scooby_state_502740|51|0 31,7,6,2,2,4,6,3,2,1,1,3,2,0,5,75,
scooby_state_457dd2|26|0 1,74,0,0,0,0,0,0,0,0,0,0,0,0,0,75,
scooby_state_44ba08|57|1 1,73,0,0,0,0,0,0,0,0,0,0,1,0,0,75,
scooby_state_45df3c|18|8 2,73,0,0,0,0,0,0,0,0,0,0,0,0,0,75,
scooby_state_457dd2|56|0 0,75,0,0,0,0,0,0,0,0,0,0,0,0,0,75,
scooby_state_452f40|4|0 75,0,0,0,0,0,0,0,0,0,0,0,0,0,0,75,
scooby_state_454372|13|-2 63,5,0,1,1,0,0,0,1,2,0,0,1,1,0,75,
scooby_state_45df3c|14|8 3,72,0,0,0,0,0,0,0,0,0,0,0,0,0,75,
scooby_state_44ba08|12|1 0,75,0,0,0,0,0,0,0,0,0,0,0,0,0,75,
scooby_state_44ba08|20|1 1,72,1,0,0,0,0,0,0,0,0,0,0,0,0,74,
scooby_state_454372|37|-2 57,5,0,2,1,1,1,1,0,0,1,1,2,0,2,74,
scooby_state_45df3c|59|8 2,72,0,0,0,0,0,0,0,0,0,0,0,0,0,74,
scooby_state_457dd2|29|0 1,73,0,0,0,0,0,0,0,0,0,0,0,0,0,74,
scooby_state_502740|29|0 27,7,6,2,5,2,0,5,1,4,1,2,4,5,3,74,
scooby_state_454372|33|-2 60,7,0,1,0,1,0,1,1,0,0,1,1,0,1,74,
scooby_state_45df3c|33|8 5,69,0,0,0,0,0,0,0,0,0,0,0,0,0,74,
scooby_state_45df3c|9|8 3,71,0,0,0,0,0,0,0,0,0,0,0,0,0,74,
scooby_state_502740|47|0 32,4,4,5,4,3,5,4,3,0,1,2,0,5,1,73,
scooby_state_454349|7|0 59,0,4,0,4,0,1,1,0,0,0,2,0,1,1,73,
scooby_state_502740|50|0 33,6,5,3,1,4,5,1,3,0,0,3,2,4,3,73,
scooby_state_4578d5|36|-6 0,0,0,0,72,0,0,0,0,1,0,0,0,0,0,73,
scooby_state_454372|46|-2 49,10,0,1,1,3,1,1,2,0,0,1,2,1,1,73,
scooby_state_40e900|50|1 73,0,0,0,0,0,0,0,0,0,0,0,0,0,0,73,
scooby_state_40e900|20|1 73,0,0,0,0,0,0,0,0,0,0,0,0,0,0,73,
scooby_state_4626c8|12|1 1,21,30,1,1,4,0,1,0,1,3,1,7,0,2,73,
scooby_state_46c443|31|0 45,5,1,0,2,4,2,1,0,0,1,7,1,0,4,73,
scooby_state_454372|3|-2 46,11,3,1,0,1,1,0,2,0,5,0,2,0,1,73,
scooby_state_502740|57|0 34,3,3,3,0,6,6,1,3,2,2,4,3,2,1,73,
scooby_state_457dd2|18|0 0,73,0,0,0,0,0,0,0,0,0,0,0,0,0,73,
scooby_state_502740|27|0 32,3,5,3,4,3,4,3,1,1,3,3,4,2,2,73,
scooby_state_45436e|38|-1 56,0,0,1,2,5,2,0,0,2,0,1,1,0,3,73,
scooby_state_45df3c|41|8 1,72,0,0,0,0,0,0,0,0,0,0,0,0,0,73,
scooby_state_44ba08|42|1 0,72,0,0,0,0,0,0,0,0,0,0,0,0,0,72,
scooby_state_454372|16|-2 53,9,0,1,0,0,0,3,0,0,1,2,2,0,1,72,
scooby_state_45df3c|37|8 1,71,0,0,0,0,0,0,0,0,0,0,0,0,0,72,
scooby_state_454372|61|-2 57,6,2,1,1,0,0,0,0,0,1,0,1,0,3,72,
scooby_state_46c443|45|0 52,5,0,0,1,1,0,1,0,3,1,5,1,1,1,72,
scooby_state_44ba08|3|1 0,72,0,0,0,0,0,0,0,0,0,0,0,0,0,72,
scooby_state_502740|28|0 26,9,3,3,3,4,4,2,4,0,1,4,4,3,2,72,
scooby_state_502740|4|0 31,1,3,5,4,7,2,2,4,0,3,3,1,5,1,72,
scooby_state_454372|20|-2 53,9,0,2,0,1,1,1,1,0,0,1,2,0,1,72,
scooby_state_457dd2|0|0 0,72,0,0,0,0,0,0,0,0,0,0,0,0,0,72,
scooby_state_44ba08|62|1 1,70,0,0,0,0,0,0,0,0,0,0,1,0,0,72,
scooby_state_502740|52|0 35,5,4,2,0,1,3,2,2,2,3,3,4,3,3,72,
scooby_state_46c443|36|0 50,5,2,1,1,3,0,1,0,1,2,4,0,0,1,71,
scooby_state_502740|61|0 31,2,2,4,2,3,2,2,5,1,1,3,5,6,2,71,
scooby_state_507080|48|2 54,17,0,0,0,0,0,0,0,0,0,0,0,0,0,71,
scooby_state_454677|17|0 11,59,0,0,0,0,0,0,0,0,0,1,0,0,0,71,
scooby_state_44ba08|31|1 2,68,0,0,0,0,0,0,0,0,0,0,1,0,0,71,
scooby_state_43723b|41|0 2,42,2,0,1,4,0,1,0,2,3,1,4,2,7,71,
scooby_state_44ba08|34|1 1,70,0,0,0,0,0,0,0,0,0,0,0,0,0,71,
scooby_state_44ba08|18|1 0,71,0,0,0,0,0,0,0,0,0,0,0,0,0,71,
scooby_state_502740|56|0 32,5,2,2,1,2,4,2,4,1,2,4,2,6,2,71,
scooby_state_40e900|34|1 71,0,0,0,0,0,0,0,0,0,0,0,0,0,0,71,
scooby_state_454372|24|-2 48,11,0,1,0,1,2,3,0,0,1,0,1,0,3,71,
scooby_state_507080|30|2 56,15,0,0,0,0,0,0,0,0,0,0,0,0,0,71,
scooby_state_501cf1|0|0 25,0,8,0,1,3,1,6,1,1,0,3,0,0,22,71,
scooby_state_44ba08|1|1 0,71,0,0,0,0,0,0,0,0,0,0,0,0,0,71,
scooby_state_44ba08|28|1 1,70,0,0,0,0,0,0,0,0,0,0,0,0,0,71,
scooby_state_40e8b6|0|0 2,69,0,0,0,0,0,0,0,0,0,0,0,0,0,71,
scooby_state_46c443|63|0 51,1,1,3,0,0,0,1,2,2,1,4,0,1,4,71,
scooby_state_454372|56|-2 46,8,1,1,0,2,3,0,0,2,1,2,2,1,1,70,
scooby_state_502740|32|0 28,7,1,5,6,4,5,1,1,1,1,2,1,6,1,70,
scooby_state_45df3c|45|8 3,67,0,0,0,0,0,0,0,0,0,0,0,0,0,70,
scooby_state_457dd2|8|0 0,70,0,0,0,0,0,0,0,0,0,0,0,0,0,70,
scooby_state_457dd2|39|0 0,69,0,0,0,0,0,0,0,0,1,0,0,0,0,70,
scooby_state_44ba08|49|1 1,69,0,0,0,0,0,0,0,0,0,0,0,0,0,70,
scooby_state_454372|19|-2 56,3,0,2,1,0,0,0,4,1,0,2,0,0,1,70,
scooby_state_502740|16|0 29,3,4,4,2,3,3,0,5,1,1,6,1,4,4,70,
scooby_state_40e900|26|1 70,0,0,0,0,0,0,0,0,0,0,0,0,0,0,70,
scooby_state_454372|50|-2 55,3,0,2,0,1,0,0,1,0,0,4,1,0,3,70,
scooby_state_46c443|46|0 43,2,1,2,3,0,3,1,3,1,1,6,0,2,2,70,
scooby_state_502740|18|0 24,5,4,5,9,2,4,2,3,1,0,4,3,3,1,70,
scooby_state_44ba08|51|1 1,69,0,0,0,0,0,0,0,0,0,0,0,0,0,70,
scooby_state_454349|6|0 53,0,1,3,3,2,1,0,1,1,2,2,0,1,0,70,
scooby_state_454372|10|-2 47,8,1,1,4,1,1,0,0,2,0,1,0,2,1,69,
scooby_state_46c443|15|0 42,2,1,1,1,0,1,1,2,2,3,10,1,1,1,69,
scooby_state_46c443|37|0 46,6,2,0,0,1,0,0,0,1,1,9,1,1,1,69,
scooby_state_46c443|49|0 50,3,0,0,2,0,1,0,1,1,0,4,2,2,3,69,
scooby_state_45436e|39|-1 58,1,0,0,0,0,0,0,0,4,0,3,0,1,2,69,
scooby_state_507080|27|2 52,17,0,0,0,0,0,0,0,0,0,0,0,0,0,69,
scooby_state_454372|27|-2 49,11,0,0,2,0,0,1,1,1,0,0,2,0,2,69,
scooby_state_44ba08|9|1 1,67,0,1,0,0,0,0,0,0,0,0,0,0,0,69,
scooby_state_45436e|39|-2 56,0,2,1,0,0,0,0,2,1,1,2,1,0,3,69,
scooby_state_502740|0|0 25,4,0,3,5,6,3,3,6,0,0,5,2,5,2,69,
scooby_state_502740|31|0 32,6,2,3,2,3,6,2,3,0,0,3,3,2,2,69,
scooby_state_44ba08|54|1 1,66,1,0,0,0,0,0,0,0,0,0,1,0,0,69,
scooby_state_44ba08|41|1 0,66,0,0,0,0,0,0,0,0,1,0,1,0,0,68,
scooby_state_44ba08|37|1 1,67,0,0,0,0,0,0,0,0,0,0,0,0,0,68,
scooby_state_44ba08|5|1 2,65,0,0,0,0,0,0,0,0,0,0,1,0,0,68,
scooby_state_454372|2|-2 47,8,2,1,1,1,1,0,1,1,0,2,0,2,1,68,
scooby_state_40e900|7|1 68,0,0,0,0,0,0,0,0,0,0,0,0,0,0,68,
scooby_state_502740|45|0 26,1,2,8,0,5,2,2,4,0,0,7,4,5,2,68,
scooby_state_44ba08|43|1 2,66,0,0,0,0,0,0,0,0,0,0,0,0,0,68,
scooby_state_45df3c|19|8 0,68,0,0,0,0,0,0,0,0,0,0,0,0,0,68,
scooby_state_44ba08|55|1 0,67,1,0,0,0,0,0,0,0,0,0,0,0,0,68,
scooby_state_44ba08|32|1 1,66,0,0,0,0,0,0,1,0,0,0,0,0,0,68,
scooby_state_45436e|14|-2 54,0,1,4,1,2,0,1,1,0,0,1,0,0,3,68,
scooby_state_40e900|35|1 68,0,0,0,0,0,0,0,0,0,0,0,0,0,0,68,
scooby_state_454372|31|-2 50,8,0,1,0,1,0,0,1,0,1,2,1,1,1,67,
scooby_state_44ba08|27|1 0,67,0,0,0,0,0,0,0,0,0,0,0,0,0,67,
scooby_state_502740|11|0 24,4,2,3,0,3,5,4,3,3,0,4,2,3,7,67,
scooby_state_502740|17|0 23,4,4,6,0,4,2,3,6,0,5,2,4,1,3,67,
scooby_state_507080|2|2 51,16,0,0,0,0,0,0,0,0,0,0,0,0,0,67,
scooby_state_40e900|44|1 67,0,0,0,0,0,0,0,0,0,0,0,0,0,0,67,
scooby_state_46c443|53|0 48,3,1,0,1,1,4,2,0,1,0,3,1,2,0,67,
scooby_state_4578d5|58|0 0,1,0,0,66,0,0,0,0,0,0,0,0,0,0,67,
scooby_state_507080|4|2 52,15,0,0,0,0,0,0,0,0,0,0,0,0,0,67,
scooby_state_44ba08|45|1 3,64,0,0,0,0,0,0,0,0,0,0,0,0,0,67,
scooby_state_457dd2|31|0 1,66,0,0,0,0,0,0,0,0,0,0,0,0,0,67,
scooby_state_502740|37|0 26,3,3,5,1,3,8,5,3,0,2,2,2,1,3,67,
scooby_state_457dd2|58|0 0,66,0,0,0,0,0,0,0,0,0,0,0,0,0,66,
scooby_state_502740|20|0 27,5,7,2,3,4,2,5,3,0,0,3,2,1,2,66,
scooby_state_44ba08|47|1 1,65,0,0,0,0,0,0,0,0,0,0,0,0,0,66,
scooby_state_40e900|19|1 66,0,0,0,0,0,0,0,0,0,0,0,0,0,0,66,
scooby_state_40e900|52|1 66,0,0,0,0,0,0,0,0,0,0,0,0,0,0,66,
scooby_state_507080|44|2 55,11,0,0,0,0,0,0,0,0,0,0,0,0,0,66,
scooby_state_502740|15|0 22,3,3,5,1,3,1,4,3,0,3,3,7,5,3,66,
scooby_state_40e900|40|1 66,0,0,0,0,0,0,0,0,0,0,0,0,0,0,66,
scooby_state_44ba08|53|1 0,66,0,0,0,0,0,0,0,0,0,0,0,0,0,66,
scooby_state_46c443|32|0 49,1,1,2,2,0,0,1,1,0,1,2,2,2,2,66,
scooby_state_40e900|63|1 66,0,0,0,0,0,0,0,0,0,0,0,0,0,0,66,
scooby_state_43ac77|41|0 42,0,0,4,2,2,2,2,1,2,1,2,1,2,3,66,
scooby_state_4626c8|41|1 4,19,26,0,0,0,1,0,0,2,0,2,10,1,1,66,
scooby_state_454349|14|0 60,1,1,0,1,0,0,0,0,0,1,1,1,0,0,66,
scooby_state_457dd2|36|0 0,66,0,0,0,0,0,0,0,0,0,0,0,0,0,66,
scooby_state_45436e|57|-1 48,1,0,2,1,1,1,1,0,1,1,2,3,1,3,66,
scooby_state_4578d5|49|-6 0,0,0,1,65,0,0,0,0,0,0,0,0,0,0,66,
scooby_state_46c443|40|0 44,5,0,1,0,2,2,0,0,2,2,5,1,0,2,66,
scooby_state_44ba08|16|1 0,65,0,0,0,0,0,0,0,0,0,0,1,0,0,66,
scooby_state_46c443|17|0 48,2,1,0,1,1,1,1,1,1,1,3,2,2,0,65,
scooby_state_457dd2|44|0 0,65,0,0,0,0,0,0,0,0,0,0,0,0,0,65,
scooby_state_44ba08|44|1 0,64,0,0,0,0,0,0,0,0,0,0,1,0,0,65,
scooby_state_44ba08|35|1 1,63,0,0,0,0,0,0,0,0,0,0,1,0,0,65,
scooby_state_4626c8|61|1 2,19,29,1,0,1,1,3,0,1,0,1,4,0,3,65,
scooby_state_454372|9|-2 45,8,0,0,0,0,1,1,2,1,0,2,0,0,5,65,
scooby_state_502740|62|0 30,3,2,2,3,2,4,1,5,1,1,2,5,1,3,65,
scooby_state_40e8b6|47|1 4,61,0,0,0,0,0,0,0,0,0,0,0,0,0,65,
scooby_state_46c443|30|0 41,3,0,2,2,2,0,2,0,1,1,4,4,2,1,65,
scooby_state_45df3c|53|8 1,64,0,0,0,0,0,0,0,0,0,0,0,0,0,65,
scooby_state_454349|2|0 46,0,3,2,3,2,2,1,1,2,2,0,0,0,1,65,
scooby_state_40e900|58|1 65,0,0,0,0,0,0,0,0,0,0,0,0,0,0,65,
scooby_state_46c443|3|0 48,6,1,0,0,0,0,0,0,1,1,4,2,0,2,65,
scooby_state_457dd2|46|0 1,64,0,0,0,0,0,0,0,0,0,0,0,0,0,65,
scooby_state_40e900|62|1 65,0,0,0,0,0,0,0,0,0,0,0,0,0,0,65,
scooby_state_457dd2|41|0 0,65,0,0,0,0,0,0,0,0,0,0,0,0,0,65,
scooby_state_46c443|38|0 45,3,1,4,0,1,2,1,0,0,2,3,1,0,2,65,
scooby_state_44ba08|59|1 1,64,0,0,0,0,0,0,0,0,0,0,0,0,0,65,
scooby_state_43a5de|6|0 0,3,0,56,0,0,0,0,0,2,0,1,0,1,2,65,
scooby_state_454372|5|-2 45,8,2,0,0,1,1,0,0,0,0,2,2,3,1,65,
scooby_state_452f40|8|0 65,0,0,0,0,0,0,0,0,0,0,0,0,0,0,65,
scooby_state_44ba08|15|1 0,64,0,0,0,0,0,0,0,0,1,0,0,0,0,65,
scooby_state_44ba08|38|1 0,65,0,0,0,0,0,0,0,0,0,0,0,0,0,65,
scooby_state_4578d5|38|-6 0,0,0,0,65,0,0,0,0,0,0,0,0,0,0,65,
scooby_state_44ba08|58|1 1,62,0,0,0,0,1,0,0,0,0,0,1,0,0,65,
scooby_state_40e900|49|1 65,0,0,0,0,0,0,0,0,0,0,0,0,0,0,65,
scooby_state_457dd2|48|0 0,64,0,0,0,0,0,1,0,0,0,0,0,0,0,65,
scooby_state_502740|44|0 22,4,3,2,1,2,6,5,5,0,3,3,0,7,2,65,
scooby_state_454372|18|-2 50,4,0,1,0,2,1,0,1,0,0,2,1,1,1,64,
scooby_state_40e8b6|45|1 3,60,1,0,0,0,0,0,0,0,0,0,0,0,0,64,
scooby_state_457dd2|62|0 0,64,0,0,0,0,0,0,0,0,0,0,0,0,0,64,
scooby_state_46c443|48|0 42,2,2,2,0,2,1,0,1,0,0,8,1,1,2,64,
scooby_state_457dd2|63|0 0,64,0,0,0,0,0,0,0,0,0,0,0,0,0,64,
scooby_state_40e900|10|1 64,0,0,0,0,0,0,0,0,0,0,0,0,0,0,64,
scooby_state_502740|38|0 31,4,7,3,0,0,4,2,5,1,1,2,0,1,3,64,
scooby_state_40e900|2|1 64,0,0,0,0,0,0,0,0,0,0,0,0,0,0,64,
scooby_state_43a5de|7|0 0,7,0,53,1,0,1,0,0,0,0,1,0,0,1,64,
scooby_state_46c443|1|0 47,0,1,0,1,0,0,0,1,3,2,6,0,0,3,64,
scooby_state_40e8b6|58|1 6,58,0,0,0,0,0,0,0,0,0,0,0,0,0,64,
scooby_state_46c443|62|0 47,4,2,0,0,0,2,1,1,0,1,3,2,0,1,64,
scooby_state_502740|8|0 28,5,2,2,4,1,2,1,8,0,1,3,3,3,1,64,
scooby_state_454372|8|-2 47,11,1,0,0,1,0,0,0,0,0,1,1,1,1,64,
scooby_state_457dd2|12|0 1,62,0,0,0,0,0,0,0,0,0,0,1,0,0,64,
scooby_state_507080|19|2 50,14,0,0,0,0,0,0,0,0,0,0,0,0,0,64,
scooby_state_452f40|1|0 64,0,0,0,0,0,0,0,0,0,0,0,0,0,0,64,
scooby_state_457dd2|53|0 0,64,0,0,0,0,0,0,0,0,0,0,0,0,0,64,
scooby_state_4626c8|19|1 3,20,31,0,1,0,2,1,1,0,0,0,3,0,2,64,
scooby_state_45df3c|5|1 0,63,0,0,0,0,0,0,0,0,0,0,0,0,0,63,
scooby_state_40e900|21|1 63,0,0,0,0,0,0,0,0,0,0,0,0,0,0,63,
scooby_state_502740|14|0 24,8,2,1,3,3,6,2,4,0,1,5,1,1,2,63,
scooby_state_45df3c|48|8 1,61,0,0,0,0,0,0,0,0,0,1,0,0,0,63,
scooby_state_454372|7|-2 44,7,3,1,0,0,0,4,0,0,0,1,0,0,3,63,
scooby_state_457dd2|60|0 0,63,0,0,0,0,0,0,0,0,0,0,0,0,0,63,
scooby_state_44ba08|56|1 1,62,0,0,0,0,0,0,0,0,0,0,0,0,0,63,
scooby_state_4578d5|60|0 0,0,0,0,63,0,0,0,0,0,0,0,0,0,0,63,
scooby_state_4578d5|43|-7 0,1,0,0,62,0,0,0,0,0,0,0,0,0,0,63,
scooby_state_4626c8|47|1 3,22,22,0,0,0,0,1,0,0,2,3,7,1,2,63,
scooby_state_454372|15|-2 42,9,1,1,1,1,2,0,1,0,1,2,0,1,1,63,
scooby_state_454372|53|-2 39,13,0,3,0,0,2,2,0,0,0,1,0,0,3,63,
scooby_state_40e900|18|1 63,0,0,0,0,0,0,0,0,0,0,0,0,0,0,63,
scooby_state_502740|6|0 25,8,0,3,2,1,4,4,5,1,1,4,4,1,0,63,
scooby_state_454372|26|-2 48,8,1,0,1,0,0,1,0,0,2,1,0,0,1,63,
scooby_state_4578d5|28|-6 0,0,0,0,63,0,0,0,0,0,0,0,0,0,0,63,
scooby_state_507080|20|2 51,12,0,0,0,0,0,0,0,0,0,0,0,0,0,63,
scooby_state_44ba08|11|1 2,59,1,0,0,0,0,0,0,0,0,0,1,0,0,63,
scooby_state_457dd2|24|0 0,63,0,0,0,0,0,0,0,0,0,0,0,0,0,63,
scooby_state_40e900|57|1 63,0,0,0,0,0,0,0,0,0,0,0,0,0,0,63,
scooby_state_454372|6|-2 47,6,0,2,0,1,2,1,0,0,0,1,0,0,3,63,
scooby_state_452f40|3|0 63,0,0,0,0,0,0,0,0,0,0,0,0,0,0,63,
scooby_state_436e3e|31|0 2,54,1,1,1,0,0,0,0,1,1,1,1,0,0,63,
scooby_state_502740|40|0 21,3,0,4,1,3,7,3,2,1,3,4,2,5,4,63,
scooby_state_46c443|21|0 46,4,0,0,1,1,0,0,1,1,3,2,0,1,3,63,
scooby_state_46c443|23|0 40,5,1,0,3,2,2,1,0,1,1,0,2,1,3,62,
scooby_state_4626c8|17|1 2,18,25,1,0,3,0,2,0,2,2,1,6,0,0,62,
scooby_state_502740|12|0 22,3,4,2,5,8,4,2,3,0,1,4,1,1,2,62,
scooby_state_46c443|51|0 45,9,0,1,0,1,2,1,1,0,0,2,0,0,0,62,
scooby_state_4626c8|31|1 1,22,27,3,1,0,1,2,1,0,0,0,2,1,1,62,
scooby_state_45436e|35|-2 55,0,0,3,0,0,0,0,0,0,0,1,1,0,2,62,
scooby_state_454372|59|-2 45,11,0,1,0,0,0,0,0,0,2,1,0,1,1,62,
scooby_state_4626c8|5|1 2,17,26,3,1,0,1,0,0,1,3,0,6,0,2,62,
scooby_state_507080|14|2 46,16,0,0,0,0,0,0,0,0,0,0,0,0,0,62,
scooby_state_454372|0|-2 40,11,0,2,0,0,0,0,2,0,2,2,1,1,1,62,
scooby_state_4578d5|35|-7 0,0,0,0,62,0,0,0,0,0,0,0,0,0,0,62,
scooby_state_507080|40|2 50,12,0,0,0,0,0,0,0,0,0,0,0,0,0,62,
scooby_state_45df3c|25|8 1,61,0,0,0,0,0,0,0,0,0,0,0,0,0,62,
scooby_state_507080|51|2 47,15,0,0,0,0,0,0,0,0,0,0,0,0,0,62,
scooby_state_45436e|48|-2 49,0,0,1,1,0,1,0,1,1,0,1,1,1,5,62,
scooby_state_40e8b6|7|2 5,57,0,0,0,0,0,0,0,0,0,0,0,0,0,62,
scooby_state_44ba08|7|1 0,62,0,0,0,0,0,0,0,0,0,0,0,0,0,62,
scooby_state_40e900|43|1 61,0,0,0,0,0,0,0,0,0,0,1,0,0,0,62,
scooby_state_44b9f8|1|1 62,0,0,0,0,0,0,0,0,0,0,0,0,0,0,62,
scooby_state_45436e|47|-1 56,1,0,0,0,0,0,0,0,0,2,1,0,1,1,62,
scooby_state_454349|8|0 51,1,0,0,2,0,1,0,0,0,0,0,4,1,2,62,
scooby_state_40e900|31|1 62,0,0,0,0,0,0,0,0,0,0,0,0,0,0,62,
scooby_state_44ba08|29|1 1,60,0,0,0,0,0,0,0,1,0,0,0,0,0,62,
scooby_state_44ba08|36|1 0,61,0,0,0,0,0,0,0,0,0,1,0,0,0,62,
scooby_state_4578d5|18|-7 1,0,0,0,60,0,0,0,0,0,0,0,0,0,0,61,
scooby_state_4626c8|22|1 2,21,27,3,2,0,0,0,0,1,0,1,3,1,0,61,
scooby_state_40e900|12|1 61,0,0,0,0,0,0,0,0,0,0,0,0,0,0,61,
scooby_state_45df3c|10|8 2,58,0,0,0,0,0,0,0,0,0,0,1,0,0,61,
scooby_state_507080|59|2 47,14,0,0,0,0,0,0,0,0,0,0,0,0,0,61,
scooby_state_40e900|32|1 61,0,0,0,0,0,0,0,0,0,0,0,0,0,0,61,
scooby_state_40e8b6|53|2 3,58,0,0,0,0,0,0,0,0,0,0,0,0,0,61,
scooby_state_40e900|27|1 61,0,0,0,0,0,0,0,0,0,0,0,0,0,0,61,
scooby_state_45df3c|2|1 0,61,0,0,0,0,0,0,0,0,0,0,0,0,0,61,
scooby_state_40e8b6|24|2 3,58,0,0,0,0,0,0,0,0,0,0,0,0,0,61,
scooby_state_502740|63|0 26,5,5,3,0,3,3,1,1,0,3,2,1,6,2,61,
scooby_state_452f40|0|0 61,0,0,0,0,0,0,0,0,0,0,0,0,0,0,61,
scooby_state_44ba08|24|1 1,60,0,0,0,0,0,0,0,0,0,0,0,0,0,61,
scooby_state_40e900|39|1 61,0,0,0,0,0,0,0,0,0,0,0,0,0,0,61,
scooby_state_507080|39|2 46,15,0,0,0,0,0,0,0,0,0,0,0,0,0,61,
scooby_state_46c443|14|0 45,5,0,1,0,1,0,0,2,1,1,1,1,0,3,61,
scooby_state_46c443|6|0 42,4,0,1,0,1,3,0,1,3,0,3,0,0,3,61,
scooby_state_507080|54|2 47,14,0,0,0,0,0,0,0,0,0,0,0,0,0,61,
scooby_state_457dd2|7|0 0,61,0,0,0,0,0,0,0,0,0,0,0,0,0,61,
scooby_state_502740|39|0 26,1,4,4,4,2,3,4,1,1,1,3,3,3,1,61,
scooby_state_4626c8|55|1 4,16,31,0,0,1,2,0,1,0,1,0,3,1,1,61,
scooby_state_46c443|57|0 35,3,0,1,0,4,0,2,1,2,1,9,0,1,2,61,
scooby_state_44ba08|23|1 0,61,0,0,0,0,0,0,0,0,0,0,0,0,0,61,
scooby_state_4626c8|49|1 4,23,23,0,0,0,1,0,0,0,0,0,6,2,2,61,
scooby_state_507080|63|2 46,15,0,0,0,0,0,0,0,0,0,0,0,0,0,61,
scooby_state_40e900|4|1 61,0,0,0,0,0,0,0,0,0,0,0,0,0,0,61,
scooby_state_452f40|7|0 60,0,0,0,0,0,0,0,0,0,0,0,0,1,0,61,
scooby_state_507080|8|2 42,18,0,0,0,0,0,0,0,0,0,0,0,0,0,60,
scooby_state_46c443|41|0 40,6,1,2,0,1,1,2,1,0,2,2,1,0,1,60,
scooby_state_4578d5|9|-7 0,0,0,0,60,0,0,0,0,0,0,0,0,0,0,60,
scooby_state_507080|62|2 43,17,0,0,0,0,0,0,0,0,0,0,0,0,0,60,
scooby_state_502740|43|0 24,4,4,2,2,3,8,4,0,0,1,0,2,2,4,60,
scooby_state_457dd2|37|0 0,60,0,0,0,0,0,0,0,0,0,0,0,0,0,60,
scooby_state_46c443|52|0 41,3,0,1,1,2,2,1,4,0,0,3,1,1,0,60,
scooby_state_454372|42|-2 44,9,0,0,0,1,0,0,0,0,0,2,1,1,2,60,
scooby_state_40e900|23|1 60,0,0,0,0,0,0,0,0,0,0,0,0,0,0,60,
scooby_state_45436e|62|0 42,0,0,1,0,3,0,1,2,2,1,1,5,0,2,60,
scooby_state_457dd2|52|0 0,60,0,0,0,0,0,0,0,0,0,0,0,0,0,60,
scooby_state_502740|49|0 22,2,4,4,3,3,4,4,3,0,2,3,1,5,0,60,
scooby_state_46c443|33|0 40,5,1,0,1,0,1,1,0,3,2,2,0,1,3,60,
scooby_state_454372|51|-2 46,4,1,2,0,1,1,1,0,1,0,0,1,1,1,60,
scooby_state_452f40|2|0 59,0,1,0,0,0,0,0,0,0,0,0,0,0,0,60,
scooby_state_454372|25|-2 47,9,1,0,0,0,1,0,1,0,0,0,0,0,1,60,
scooby_state_507080|16|2 44,16,0,0,0,0,0,0,0,0,0,0,0,0,0,60,
scooby_state_502740|10|0 26,3,5,3,2,4,1,1,4,1,1,2,0,5,2,60,
scooby_state_454372|62|0 41,5,0,1,0,1,1,1,3,2,1,1,0,2,1,60,
scooby_state_454372|11|-2 40,7,1,0,2,2,0,1,0,0,0,2,1,1,3,60,
scooby_state_457dd2|32|0 0,60,0,0,0,0,0,0,0,0,0,0,0,0,0,60,
scooby_state_40e8b6|4|2 3,57,0,0,0,0,0,0,0,0,0,0,0,0,0,60,
scooby_state_454372|28|-2 40,5,0,1,1,1,1,0,2,0,2,1,1,0,5,60,
scooby_state_46c443|0|0 44,0,1,2,0,0,1,1,1,0,0,7,0,0,3,60,
scooby_state_40e8b6|45|2 4,56,0,0,0,0,0,0,0,0,0,0,0,0,0,60,
scooby_state_46c443|47|0 38,2,1,0,2,3,0,2,0,0,0,4,3,0,5,60,
scooby_state_457dd2|59|0 0,59,0,0,0,0,0,0,0,0,1,0,0,0,0,60,
scooby_state_454372|39|-2 48,5,1,0,0,1,1,0,1,1,0,1,0,1,0,60,
scooby_state_44ba08|4|1 0,60,0,0,0,0,0,0,0,0,0,0,0,0,0,60,
scooby_state_44b9f8|52|1 60,0,0,0,0,0,0,0,0,0,0,0,0,0,0,60,
scooby_state_454372|60|-2 47,7,1,1,1,0,1,0,0,0,0,2,0,0,0,60,
scooby_state_45436e|59|-1 53,0,0,0,3,0,1,0,0,0,0,0,1,0,2,60,
scooby_state_502740|7|0 20,7,1,1,2,7,3,2,4,0,1,3,4,3,2,60,
scooby_state_457dd2|45|0 0,59,0,0,0,0,0,0,0,0,0,0,0,0,0,59,
scooby_state_457dd2|54|0 0,58,0,0,0,0,1,0,0,0,0,0,0,0,0,59,
scooby_state_4626c8|46|1 4,19,24,2,0,0,2,2,0,1,1,0,3,0,1,59,
scooby_state_45436e|50|-2 52,0,1,0,1,0,2,0,0,0,1,1,0,0,1,59,
scooby_state_4626c8|11|1 0,18,23,2,1,0,0,2,1,1,0,0,9,0,2,59,
scooby_state_46c443|59|0 41,8,0,0,0,1,1,0,1,0,0,3,0,1,3,59,
scooby_state_45436e|32|-1 55,0,0,0,0,1,0,1,1,0,0,1,0,0,0,59,
scooby_state_40e900|41|1 59,0,0,0,0,0,0,0,0,0,0,0,0,0,0,59,
scooby_state_4578d5|34|-6 0,0,1,0,58,0,0,0,0,0,0,0,0,0,0,59,
scooby_state_40e8b6|28|2 2,57,0,0,0,0,0,0,0,0,0,0,0,0,0,59,
scooby_state_501c59|0|0 59,0,0,0,0,0,0,0,0,0,0,0,0,0,0,59,
scooby_state_454349|1|0 50,0,0,1,1,1,0,1,2,1,1,0,0,1,0,59,
scooby_state_40e900|24|1 59,0,0,0,0,0,0,0,0,0,0,0,0,0,0,59,
scooby_state_502740|36|0 31,2,4,2,0,2,4,0,2,0,0,5,2,4,1,59,
scooby_state_502740|21|0 27,0,4,0,5,2,5,1,3,0,0,4,4,3,1,59,
scooby_state_502740|41|0 24,0,0,2,3,3,4,3,4,0,0,5,4,2,5,59,
scooby_state_507080|18|2 44,15,0,0,0,0,0,0,0,0,0,0,0,0,0,59,
scooby_state_502740|13|0 24,2,2,2,4,1,3,2,2,0,1,5,6,3,2,59,
scooby_state_4578d5|31|-7 0,1,0,0,58,0,0,0,0,0,0,0,0,0,0,59,
scooby_state_502740|24|0 28,2,4,1,2,1,4,0,2,1,1,5,2,4,2,59,
scooby_state_507080|47|2 43,16,0,0,0,0,0,0,0,0,0,0,0,0,0,59,
scooby_state_44ba08|21|1 2,56,0,0,0,0,0,0,0,0,0,0,0,1,0,59,
scooby_state_44b9f8|13|1 58,0,0,0,0,0,0,0,0,0,0,0,0,0,0,58,
scooby_state_502740|23|0 21,1,5,3,4,2,4,3,0,1,1,3,0,5,5,58,
scooby_state_454372|43|-2 38,13,0,1,2,0,0,0,1,0,0,0,2,1,0,58,
scooby_state_502740|25|0 20,7,1,3,3,6,4,0,2,1,2,1,3,3,2,58,
scooby_state_502740|42|0 27,4,2,4,0,1,1,2,3,0,0,4,1,6,3,58,
scooby_state_46c443|35|0 43,3,1,2,1,0,0,2,0,0,0,4,0,0,2,58,
scooby_state_44ba08|30|1 1,57,0,0,0,0,0,0,0,0,0,0,0,0,0,58,
scooby_state_454372|49|-2 38,9,1,1,1,1,0,0,1,1,1,1,1,0,2,58,
scooby_state_40e8b6|19|2 3,55,0,0,0,0,0,0,0,0,0,0,0,0,0,58,
scooby_state_4626c8|62|1 0,14,26,2,2,0,0,2,0,0,1,2,3,2,4,58,
scooby_state_40e900|15|1 58,0,0,0,0,0,0,0,0,0,0,0,0,0,0,58,
scooby_state_44ba08|13|1 0,57,0,0,0,0,0,0,0,0,0,0,1,0,0,58,
scooby_state_507080|56|2 42,16,0,0,0,0,0,0,0,0,0,0,0,0,0,58,
scooby_state_46267c|3|0 53,3,2,0,0,0,0,0,0,0,0,0,0,0,0,58,
scooby_state_4578d5|14|-7 0,0,0,0,58,0,0,0,0,0,0,0,0,0,0,58,
scooby_state_44ba08|8|1 1,56,0,0,0,0,0,0,0,0,0,0,1,0,0,58,
scooby_state_454372|54|-2 42,10,0,1,0,1,0,0,0,0,2,0,1,0,1,58,
scooby_state_46c443|25|0 41,3,0,1,2,1,0,0,2,1,2,2,1,0,2,58,
scooby_state_40e8b6|37|1 4,54,0,0,0,0,0,0,0,0,0,0,0,0,0,58,
scooby_state_507080|42|2 36,22,0,0,0,0,0,0,0,0,0,0,0,0,0,58,
scooby_state_45436e|40|-1 47,0,1,1,1,1,0,1,0,1,1,1,0,1,2,58,
scooby_state_4626c8|1|1 0,20,20,1,2,0,1,0,2,1,0,0,7,2,2,58,
scooby_state_46c443|56|0 41,4,0,0,0,1,1,0,1,1,1,4,1,0,3,58,
scooby_state_507080|10|2 47,11,0,0,0,0,0,0,0,0,0,0,0,0,0,58,
scooby_state_46c443|54|0 38,6,2,1,2,0,0,1,0,1,0,1,1,2,3,58,
scooby_state_4626c8|33|1 0,22,24,2,1,1,0,0,0,0,0,2,2,1,2,57,
scooby_state_4626c8|9|1 0,17,26,1,1,2,1,1,2,0,2,0,4,0,0,57,
scooby_state_507080|53|2 51,6,0,0,0,0,0,0,0,0,0,0,0,0,0,57,
scooby_state_4626c8|27|1 1,18,30,2,0,0,1,0,0,0,1,0,2,2,0,57,
scooby_state_40e8b6|49|2 3,54,0,0,0,0,0,0,0,0,0,0,0,0,0,57,
scooby_state_4578d5|39|-7 2,1,0,0,54,0,0,0,0,0,0,0,0,0,0,57,
scooby_state_46c443|50|0 45,3,0,1,0,1,0,1,0,0,0,4,0,1,1,57,
scooby_state_46c443|34|0 40,5,0,1,0,0,1,3,0,0,0,3,1,0,3,57,
scooby_state_454372|17|-2 44,7,0,1,0,0,2,1,0,1,0,1,0,0,0,57,
scooby_state_44b9f8|5|1 57,0,0,0,0,0,0,0,0,0,0,0,0,0,0,57,
scooby_state_502740|53|0 21,2,4,2,1,3,5,1,4,1,0,2,4,4,3,57,
scooby_state_45436e|61|-1 38,0,2,1,2,4,2,1,1,2,1,2,1,0,0,57,
scooby_state_40e8b6|41|2 6,51,0,0,0,0,0,0,0,0,0,0,0,0,0,57,
scooby_state_507080|35|2 45,12,0,0,0,0,0,0,0,0,0,0,0,0,0,57,
scooby_state_4626c8|53|1 1,22,21,2,1,1,0,2,1,1,0,1,1,0,3,57,
scooby_state_502740|55|0 24,3,4,7,2,4,4,2,1,1,0,3,0,2,0,57,
scooby_state_46c443|28|0 37,3,1,1,0,0,1,3,0,1,0,5,1,1,3,57,
scooby_state_44ba08|52|1 0,57,0,0,0,0,0,0,0,0,0,0,0,0,0,57,
scooby_state_502740|2|0 28,4,2,2,3,1,3,2,2,0,0,3,2,2,3,57,
scooby_state_44b9f8|63|1 57,0,0,0,0,0,0,0,0,0,0,0,0,0,0,57,
scooby_state_45436e|15|-2 49,0,1,1,0,1,1,1,0,0,0,1,0,0,2,57,
scooby_state_40e900|56|1 57,0,0,0,0,0,0,0,0,0,0,0,0,0,0,57,
scooby_state_45436e|36|-2 49,0,0,1,1,0,1,0,0,0,1,1,1,0,2,57,
scooby_state_4626c8|16|1 1,17,26,2,2,0,2,1,2,0,0,1,2,0,1,57,
scooby_state_45436e|45|-1 46,2,0,1,0,1,0,1,0,2,0,3,0,0,1,57,
scooby_state_45436e|40|-2 41,0,4,2,0,2,1,1,0,0,0,1,1,0,4,57,
scooby_state_4626c8|51|1 2,23,21,0,1,1,0,1,0,0,0,3,3,0,2,57,
scooby_state_46c443|4|0 42,3,1,0,1,0,1,1,0,3,2,2,0,1,0,57,
scooby_state_507080|36|2 44,13,0,0,0,0,0,0,0,0,0,0,0,0,0,57,
scooby_state_4626c8|35|1 1,17,20,2,1,1,1,0,0,1,1,1,6,3,1,56,
scooby_state_507080|13|2 38,18,0,0,0,0,0,0,0,0,0,0,0,0,0,56,
scooby_state_507080|3|2 43,13,0,0,0,0,0,0,0,0,0,0,0,0,0,56,
scooby_state_46c443|13|0 37,3,2,2,1,1,2,1,0,0,0,3,0,2,2,56,
scooby_state_507080|6|2 43,13,0,0,0,0,0,0,0,0,0,0,0,0,0,56,
scooby_state_4626c8|54|1 2,14,27,1,0,0,1,2,0,0,2,1,3,1,2,56,
scooby_state_46c443|55|0 31,3,0,2,3,2,0,0,2,0,2,8,0,2,1,56,
scooby_state_40e8b6|43|1 5,51,0,0,0,0,0,0,0,0,0,0,0,0,0,56,
scooby_state_46c443|12|0 40,2,1,3,1,3,0,0,1,1,0,3,0,0,1,56,
scooby_state_4626c8|56|1 2,23,19,2,0,0,1,1,0,2,0,0,4,0,2,56,
scooby_state_4626c8|7|1 1,20,27,0,0,0,1,0,0,2,0,0,3,1,1,56,
scooby_state_507080|24|2 44,12,0,0,0,0,0,0,0,0,0,0,0,0,0,56,
scooby_state_44b9f8|49|1 56,0,0,0,0,0,0,0,0,0,0,0,0,0,0,56,
scooby_state_4626c8|26|1 2,18,23,0,0,0,1,1,0,0,1,0,6,1,3,56,
scooby_state_454372|48|-2 34,6,3,0,3,2,1,1,0,0,3,0,0,0,3,56,
scooby_state_40e8b6|1|1 9,47,0,0,0,0,0,0,0,0,0,0,0,0,0,56,
scooby_state_40e900|22|1 56,0,0,0,0,0,0,0,0,0,0,0,0,0,0,56,
scooby_state_447b9f|0|0 3,3,0,0,19,0,0,0,0,0,0,0,31,0,0,56,
scooby_state_454372|12|-1 27,5,0,0,2,0,0,0,0,0,1,17,1,1,2,56,
scooby_state_452f40|5|0 56,0,0,0,0,0,0,0,0,0,0,0,0,0,0,56,
scooby_state_40e8b6|37|2 3,53,0,0,0,0,0,0,0,0,0,0,0,0,0,56,
scooby_state_4626c8|13|1 1,17,30,2,0,1,1,0,0,0,2,0,1,0,1,56,
scooby_state_502740|58|0 25,4,2,2,4,3,2,3,1,0,0,5,2,2,1,56,
scooby_state_45436e|29|-1 49,0,0,1,0,0,0,0,0,0,0,3,0,3,0,56,
scooby_state_45436e|15|-1 44,1,1,2,0,1,0,1,1,1,0,0,0,3,1,56,
scooby_state_46c443|29|0 38,4,2,1,2,0,2,0,1,1,2,2,1,0,0,56,
scooby_state_502740|9|0 19,4,4,3,0,4,6,0,4,0,2,3,4,0,3,56,
scooby_state_454372|32|-2 47,4,1,1,0,0,0,1,0,0,0,0,0,2,0,56,
scooby_state_44b9f8|54|1 56,0,0,0,0,0,0,0,0,0,0,0,0,0,0,56,
scooby_state_4626c8|32|1 2,20,21,1,0,3,0,0,0,0,1,3,5,0,0,56,
scooby_state_502740|34|0 20,3,2,7,3,1,5,1,1,1,0,4,1,4,2,55,
scooby_state_454372|38|-2 44,6,1,0,0,0,1,0,0,1,0,1,0,0,1,55,
scooby_state_40e900|48|1 55,0,0,0,0,0,0,0,0,0,0,0,0,0,0,55,
scooby_state_452930|14|0 15,6,0,0,0,0,0,0,0,0,0,34,0,0,0,55,
scooby_state_502740|3|0 23,4,0,1,1,3,4,0,2,3,1,5,1,4,3,55,
scooby_state_4578d5|19|-6 0,0,0,0,55,0,0,0,0,0,0,0,0,0,0,55,
scooby_state_45436e|4|-1 45,0,1,1,0,0,0,0,0,4,1,2,0,0,1,55,
scooby_state_44b9f8|28|1 54,0,0,0,0,0,0,0,0,0,0,0,0,0,1,55,
scooby_state_4578d5|56|-6 0,0,0,0,55,0,0,0,0,0,0,0,0,0,0,55,
scooby_state_507080|12|2 42,13,0,0,0,0,0,0,0,0,0,0,0,0,0,55,
scooby_state_45436e|54|-2 47,0,1,0,0,0,0,1,0,0,0,2,2,2,0,55,
scooby_state_44ba08|33|1 1,54,0,0,0,0,0,0,0,0,0,0,0,0,0,55,
scooby_state_45436e|5|-2 49,0,1,2,0,0,0,0,1,0,1,0,0,0,1,55,
scooby_state_46c443|22|0 41,1,2,1,0,1,0,1,1,0,1,3,1,1,1,55,
scooby_state_502740|26|0 20,3,2,3,3,2,1,3,8,0,2,2,0,2,4,55,
scooby_state_507080|61|2 41,14,0,0,0,0,0,0,0,0,0,0,0,0,0,55,
scooby_state_46c443|61|0 42,4,0,1,0,0,0,0,2,1,1,1,1,1,1,55,
scooby_state_44b9f8|23|1 55,0,0,0,0,0,0,0,0,0,0,0,0,0,0,55,
scooby_state_507080|37|2 41,14,0,0,0,0,0,0,0,0,0,0,0,0,0,55,
scooby_state_4626c8|15|1 0,20,21,1,1,1,0,0,0,1,0,2,5,1,1,54,
scooby_state_44b9f8|20|1 54,0,0,0,0,0,0,0,0,0,0,0,0,0,0,54,
scooby_state_4578d5|50|-6 0,0,0,0,54,0,0,0,0,0,0,0,0,0,0,54,
scooby_state_507080|57|2 43,11,0,0,0,0,0,0,0,0,0,0,0,0,0,54,
scooby_state_507080|33|2 42,12,0,0,0,0,0,0,0,0,0,0,0,0,0,54,
scooby_state_502740|48|0 19,5,4,3,2,4,3,1,3,0,1,3,2,4,0,54,
scooby_state_507080|11|2 41,13,0,0,0,0,0,0,0,0,0,0,0,0,0,54,
scooby_state_4626c8|0|0 1,38,2,0,0,2,2,1,1,1,1,1,1,1,2,54,
scooby_state_45436e|37|-2 47,0,1,1,1,0,0,0,0,1,0,1,0,1,1,54,
scooby_state_40e900|45|1 53,0,0,0,0,0,0,0,0,0,0,0,0,1,0,54,
scooby_state_44ba08|60|1 2,52,0,0,0,0,0,0,0,0,0,0,0,0,0,54,
scooby_state_46c443|11|0 41,3,1,1,0,0,0,3,1,1,0,2,0,1,0,54,
scooby_state_45436e|31|-2 42,0,1,2,0,0,0,0,0,0,0,2,1,1,5,54,
scooby_state_44b9f8|48|1 54,0,0,0,0,0,0,0,0,0,0,0,0,0,0,54,
scooby_state_502740|54|0 28,2,1,5,2,2,2,0,4,1,0,1,3,2,1,54,
scooby_state_4626c8|50|1 1,18,22,1,0,0,1,0,1,0,0,0,7,2,1,54,
scooby_state_40e8b6|59|1 3,50,0,0,0,0,0,0,0,1,0,0,0,0,0,54,
scooby_state_501cf1|9|1 23,2,1,0,4,2,0,4,1,0,3,12,1,0,1,54,
scooby_state_45436e|8|-1 41,1,1,1,1,1,2,0,1,3,0,0,2,0,0,54,
scooby_state_4578d5|42|-6 0,0,0,0,54,0,0,0,0,0,0,0,0,0,0,54,
scooby_state_4626c8|24|1 0,23,21,0,1,1,1,0,2,0,1,0,4,0,0,54,
scooby_state_4578d5|27|-7 0,1,0,0,53,0,0,0,0,0,0,0,0,0,0,54,
scooby_state_4626c8|4|1 0,19,20,2,1,2,0,1,1,2,0,0,3,1,2,54,
scooby_state_454349|9|0 48,0,0,0,0,0,2,0,0,0,1,1,0,1,0,53,
scooby_state_45436e|43|-2 45,0,1,0,0,0,3,0,0,1,0,1,0,0,2,53,
scooby_state_501cf1|62|1 27,3,1,0,1,1,1,0,0,1,1,12,4,0,1,53,
scooby_state_40e8b6|51|1 3,50,0,0,0,0,0,0,0,0,0,0,0,0,0,53,
scooby_state_40e900|55|1 53,0,0,0,0,0,0,0,0,0,0,0,0,0,0,53,
scooby_state_502740|60|0 23,2,2,4,2,3,1,3,5,0,2,1,5,0,0,53,
scooby_state_4626c8|60|1 0,17,21,3,0,0,1,1,1,2,0,0,4,1,2,53,
scooby_state_44b9f8|42|1 53,0,0,0,0,0,0,0,0,0,0,0,0,0,0,53,
scooby_state_46c443|7|0 38,4,1,0,2,0,1,1,0,0,1,2,1,2,0,53,
scooby_state_40e900|37|1 53,0,0,0,0,0,0,0,0,0,0,0,0,0,0,53,
scooby_state_40e900|13|1 53,0,0,0,0,0,0,0,0,0,0,0,0,0,0,53,
scooby_state_45436e|10|-1 44,1,0,1,0,0,0,0,3,0,0,3,0,1,0,53,
scooby_state_507080|25|2 39,14,0,0,0,0,0,0,0,0,0,0,0,0,0,53,
scooby_state_457dd2|33|0 0,53,0,0,0,0,0,0,0,0,0,0,0,0,0,53,
scooby_state_454349|28|14 1,51,0,0,0,0,0,0,0,0,0,1,0,0,0,53,
scooby_state_507080|5|2 39,14,0,0,0,0,0,0,0,0,0,0,0,0,0,53,
scooby_state_4626c8|57|1 2,18,18,1,1,0,0,1,1,1,2,0,3,3,2,53,
scooby_state_4578d5|7|-6 0,0,1,0,52,0,0,0,0,0,0,0,0,0,0,53,
scooby_state_45df3c|4|1 1,52,0,0,0,0,0,0,0,0,0,0,0,0,0,53,
scooby_state_4543a0|59|2 9,3,1,4,2,2,2,2,3,1,1,15,3,2,3,53,
scooby_state_45e4ba|7|0 4,49,0,0,0,0,0,0,0,0,0,0,0,0,0,53,
scooby_state_454372|44|-2 41,4,0,0,1,2,1,1,0,1,0,1,0,0,1,53,
scooby_state_4626c8|23|1 2,17,24,2,0,1,1,1,0,0,0,2,2,0,1,53,
scooby_state_45436e|35|-1 44,0,2,0,1,0,0,0,0,1,1,2,0,1,1,53,
scooby_state_4578d5|3|-7 0,0,0,0,53,0,0,0,0,0,0,0,0,0,0,53,
scooby_state_46c443|42|0 36,2,0,0,1,1,1,0,0,2,2,4,1,2,1,53,
scooby_state_454372|47|-2 36,9,0,2,0,0,0,0,0,2,1,0,2,0,0,52,
scooby_state_4578d5|54|-6 0,0,0,0,52,0,0,0,0,0,0,0,0,0,0,52,
scooby_state_44b9f8|16|1 52,0,0,0,0,0,0,0,0,0,0,0,0,0,0,52,
scooby_state_507080|45|2 39,13,0,0,0,0,0,0,0,0,0,0,0,0,0,52,
scooby_state_44b9f8|46|1 52,0,0,0,0,0,0,0,0,0,0,0,0,0,0,52,
scooby_state_45436e|13|-1 45,1,2,0,0,1,0,0,1,1,0,0,1,0,0,52,
scooby_state_454372|12|-2 35,8,1,1,1,0,0,1,2,1,1,1,0,0,0,52,
scooby_state_457dd2|47|0 0,52,0,0,0,0,0,0,0,0,0,0,0,0,0,52,
scooby_state_4578d5|3|-6 0,0,0,0,51,0,0,0,0,1,0,0,0,0,0,52,
scooby_state_4578d5|8|-6 1,0,0,0,50,0,0,0,0,0,0,0,0,0,1,52,
scooby_state_45436e|7|-2 41,0,0,0,2,1,1,0,1,0,2,0,0,0,4,52,
scooby_state_45436e|23|-2 41,0,0,1,1,0,0,1,2,1,2,2,0,1,0,52,
scooby_state_44ba08|48|1 2,50,0,0,0,0,0,0,0,0,0,0,0,0,0,52,
scooby_state_45436e|52|-2 42,0,0,2,1,0,0,2,1,1,0,0,0,2,1,52,
scooby_state_4626c8|58|1 1,12,30,0,0,2,0,0,1,0,0,0,6,0,0,52,
scooby_state_454372|14|-2 38,8,1,0,0,0,0,0,0,0,2,1,0,0,2,52,
scooby_state_4626c8|2|1 1,19,23,0,0,0,1,1,0,1,2,0,2,0,2,52,
scooby_state_507080|60|2 41,11,0,0,0,0,0,0,0,0,0,0,0,0,0,52,
scooby_state_4578d5|61|0 0,0,0,0,52,0,0,0,0,0,0,0,0,0,0,52,
scooby_state_502740|19|0 18,4,1,6,1,3,4,4,4,0,1,1,2,1,2,52,
scooby_state_44b9f8|31|1 52,0,0,0,0,0,0,0,0,0,0,0,0,0,0,52,
scooby_state_457dd2|35|0 0,52,0,0,0,0,0,0,0,0,0,0,0,0,0,52,
scooby_state_452f43|46|0 0,52,0,0,0,0,0,0,0,0,0,0,0,0,0,52,
scooby_state_457dd2|49|0 0,52,0,0,0,0,0,0,0,0,0,0,0,0,0,52,
scooby_state_4578d5|32|-6 1,0,0,0,51,0,0,0,0,0,0,0,0,0,0,52,
scooby_state_4626c8|30|1 1,13,21,5,1,1,1,0,0,1,1,0,4,2,1,52,
scooby_state_4626c8|43|1 0,13,25,1,2,2,0,0,0,1,1,2,3,0,1,51,
scooby_state_4626c8|29|1 2,20,19,0,0,2,0,0,1,0,1,1,4,0,1,51,
scooby_state_4578d5|49|-7 1,0,0,0,50,0,0,0,0,0,0,0,0,0,0,51,
scooby_state_40e900|30|1 51,0,0,0,0,0,0,0,0,0,0,0,0,0,0,51,
scooby_state_40e8b6|12|1 3,48,0,0,0,0,0,0,0,0,0,0,0,0,0,51,
scooby_state_45436e|41|-2 39,0,1,1,0,0,1,0,0,1,0,2,1,1,4,51,
scooby_state_45436e|24|-2 45,0,0,0,0,1,0,1,0,1,0,2,0,0,1,51,
scooby_state_45436e|28|-2 43,0,0,0,0,0,0,1,0,1,1,1,0,1,3,51,
scooby_state_4578d5|16|-6 0,1,0,0,50,0,0,0,0,0,0,0,0,0,0,51,
scooby_state_4626c8|63|1 1,15,26,1,0,1,1,0,1,0,0,0,4,0,1,51,
scooby_state_46c443|18|0 40,3,1,1,1,0,0,0,0,1,0,1,1,1,1,51,
scooby_state_507080|43|2 36,15,0,0,0,0,0,0,0,0,0,0,0,0,0,51,
scooby_state_40e8b6|28|1 4,47,0,0,0,0,0,0,0,0,0,0,0,0,0,51,
scooby_state_43a5de|9|0 1,4,0,45,0,0,0,1,0,0,0,0,0,0,0,51,
scooby_state_40e8b6|13|1 3,48,0,0,0,0,0,0,0,0,0,0,0,0,0,51,
scooby_state_45df3c|4|2 1,50,0,0,0,0,0,0,0,0,0,0,0,0,0,51,
scooby_state_501cf1|54|1 27,6,1,1,1,0,1,0,3,0,1,8,0,1,1,51,
scooby_state_507080|7|2 39,12,0,0,0,0,0,0,0,0,0,0,0,0,0,51,
scooby_state_501cf1|37|1 24,5,1,0,1,0,2,2,0,1,1,7,3,0,4,51,
scooby_state_507080|34|2 36,15,0,0,0,0,0,0,0,0,0,0,0,0,0,51,
scooby_state_4578d5|4|-6 0,0,0,0,51,0,0,0,0,0,0,0,0,0,0,51,
scooby_state_507080|50|2 34,17,0,0,0,0,0,0,0,0,0,0,0,0,0,51,
scooby_state_428461|39|0 22,28,0,0,0,0,0,0,1,0,0,0,0,0,0,51,
scooby_state_40e8b6|13|2 3,48,0,0,0,0,0,0,0,0,0,0,0,0,0,51,
scooby_state_44b9f8|57|1 51,0,0,0,0,0,0,0,0,0,0,0,0,0,0,51,
scooby_state_40e8b6|39|1 1,50,0,0,0,0,0,0,0,0,0,0,0,0,0,51,
scooby_state_501cf1|32|1 27,9,0,2,0,1,1,0,0,2,0,4,2,1,2,51,
scooby_state_44b9f8|17|1 51,0,0,0,0,0,0,0,0,0,0,0,0,0,0,51,
scooby_state_4626c8|10|1 3,19,22,0,0,0,1,0,0,1,2,0,2,0,1,51,
scooby_state_4626c8|36|1 2,21,20,0,0,0,1,1,0,0,0,0,1,0,5,51,
scooby_state_501cf1|50|1 22,3,1,2,0,2,0,3,1,2,0,6,4,3,2,51,
scooby_state_507080|15|2 39,12,0,0,0,0,0,0,0,0,0,0,0,0,0,51,
scooby_state_452f40|10|0 51,0,0,0,0,0,0,0,0,0,0,0,0,0,0,51,
scooby_state_44b9f8|60|1 51,0,0,0,0,0,0,0,0,0,0,0,0,0,0,51,
scooby_state_454372|55|-2 39,5,0,1,2,0,0,0,1,0,0,0,1,1,1,51,
scooby_state_4626c8|44|1 1,17,20,0,0,0,1,0,0,0,0,3,6,1,2,51,
scooby_state_46c443|26|0 40,1,1,0,0,1,1,0,2,1,1,1,1,0,0,50,
scooby_state_501cf1|39|1 21,4,0,3,0,0,1,0,1,0,1,6,8,2,3,50,
scooby_state_40e8b6|9|1 3,47,0,0,0,0,0,0,0,0,0,0,0,0,0,50,
scooby_state_46c443|60|0 26,6,1,2,2,0,2,2,0,2,1,1,0,2,3,50,
scooby_state_46c443|9|0 36,6,0,0,0,1,0,0,0,0,0,6,0,0,1,50,
scooby_state_454349|14|7 16,0,0,6,2,3,1,3,1,1,2,7,1,2,5,50,
scooby_state_40e900|61|1 50,0,0,0,0,0,0,0,0,0,0,0,0,0,0,50,
scooby_state_45436e|55|-1 38,0,0,3,0,1,2,0,0,2,0,2,1,0,1,50,
scooby_state_507080|31|2 37,13,0,0,0,0,0,0,0,0,0,0,0,0,0,50,
scooby_state_501cf1|41|1 18,5,3,0,1,0,3,1,1,1,1,7,4,1,4,50,
scooby_state_44b9f8|45|1 50,0,0,0,0,0,0,0,0,0,0,0,0,0,0,50,
scooby_state_45436e|30|-1 34,0,0,1,1,2,2,0,1,2,0,2,1,0,4,50,
scooby_state_4626c8|39|1 0,20,22,1,0,0,0,1,1,0,0,0,3,2,0,50,
scooby_state_4578d5|30|-6 0,0,0,0,49,1,0,0,0,0,0,0,0,0,0,50,
scooby_state_501cf1|10|1 21,10,0,0,1,1,0,0,1,0,0,11,1,1,3,50,
scooby_state_40e8b6|57|2 4,46,0,0,0,0,0,0,0,0,0,0,0,0,0,50,
scooby_state_45436e|26|-2 42,0,0,0,0,0,0,0,1,1,2,3,0,0,1,50,
scooby_state_40e8b6|17|1 4,46,0,0,0,0,0,0,0,0,0,0,0,0,0,50,
scooby_state_501f25|59|0 26,24,0,0,0,0,0,0,0,0,0,0,0,0,0,50,
scooby_state_40e8b6|41|1 7,43,0,0,0,0,0,0,0,0,0,0,0,0,0,50,
scooby_state_40e8b6|58|2 5,45,0,0,0,0,0,0,0,0,0,0,0,0,0,50,
scooby_state_4578d5|47|-7 0,0,0,0,50,0,0,0,0,0,0,0,0,0,0,50,
scooby_state_501cf1|24|1 24,4,0,2,1,0,0,0,1,1,0,7,5,1,4,50,
scooby_state_454349|50|0 43,1,0,0,1,0,0,1,0,0,0,1,0,1,2,50,
scooby_state_40e8b6|6|2 6,44,0,0,0,0,0,0,0,0,0,0,0,0,0,50,
scooby_state_43a5de|50|0 0,3,0,43,0,0,0,1,0,0,0,0,1,0,2,50,
scooby_state_45436e|17|-2 41,0,0,1,1,1,0,0,0,0,0,1,0,1,4,50,
scooby_state_45df3c|7|2 2,48,0,0,0,0,0,0,0,0,0,0,0,0,0,50,
scooby_state_40e900|33|1 49,0,1,0,0,0,0,0,0,0,0,0,0,0,0,50,
scooby_state_46267c|6|4 0,0,50,0,0,0,0,0,0,0,0,0,0,0,0,50,
scooby_state_507080|58|2 37,13,0,0,0,0,0,0,0,0,0,0,0,0,0,50,
scooby_state_43a5de|8|0 0,3,0,41,1,1,1,0,0,0,0,0,1,0,2,50,
scooby_state_45436e|48|-1 45,0,0,0,0,1,0,0,0,0,0,1,0,2,1,50,
scooby_state_501cf1|22|1 27,3,1,0,1,0,3,2,0,1,0,6,4,1,1,50,
scooby_state_4578d5|0|-6 0,0,0,0,50,0,0,0,0,0,0,0,0,0,0,50,
scooby_state_46c443|24|0 37,3,2,0,1,1,1,0,1,0,0,0,1,1,2,50,
scooby_state_46c443|5|0 39,1,1,0,1,0,0,1,1,0,0,1,3,0,1,49,
scooby_state_46c443|19|0 33,5,0,0,0,2,0,2,0,2,2,0,2,0,1,49,
scooby_state_46267c|4|4 0,2,47,0,0,0,0,0,0,0,0,0,0,0,0,49,
scooby_state_40e8b6|63|1 2,47,0,0,0,0,0,0,0,0,0,0,0,0,0,49,
scooby_state_40e900|16|1 49,0,0,0,0,0,0,0,0,0,0,0,0,0,0,49,
scooby_state_40e8b6|16|2 2,47,0,0,0,0,0,0,0,0,0,0,0,0,0,49,
scooby_state_40e8b6|33|1 5,44,0,0,0,0,0,0,0,0,0,0,0,0,0,49,
scooby_state_44b9f8|3|1 49,0,0,0,0,0,0,0,0,0,0,0,0,0,0,49,
scooby_state_4578d5|6|-7 1,0,0,0,48,0,0,0,0,0,0,0,0,0,0,49,
scooby_state_45436e|53|-1 42,1,0,1,0,0,0,0,1,0,0,3,0,0,1,49,
scooby_state_45436e|0|-1 44,0,0,1,0,0,0,0,0,2,0,2,0,0,0,49,
scooby_state_435de5|46|0 1,48,0,0,0,0,0,0,0,0,0,0,0,0,0,49,
scooby_state_4626c8|38|1 2,13,17,4,1,2,1,1,0,1,1,0,5,0,1,49,
scooby_state_501cf1|1|1 28,3,1,0,1,1,1,1,0,0,0,7,1,3,2,49,
scooby_state_4626c8|6|1 1,13,20,1,1,0,0,0,2,1,0,0,6,2,2,49,
scooby_state_4626c8|59|1 1,19,18,0,1,1,0,1,0,0,0,3,2,0,3,49,
scooby_state_44b9f8|53|1 49,0,0,0,0,0,0,0,0,0,0,0,0,0,0,49,
scooby_state_40e900|3|1 49,0,0,0,0,0,0,0,0,0,0,0,0,0,0,49,
scooby_state_40e8b6|16|1 6,43,0,0,0,0,0,0,0,0,0,0,0,0,0,49,
scooby_state_507080|41|2 37,12,0,0,0,0,0,0,0,0,0,0,0,0,0,49,
scooby_state_40e900|36|1 49,0,0,0,0,0,0,0,0,0,0,0,0,0,0,49,
scooby_state_501cf1|26|1 18,2,1,1,3,1,1,1,0,0,0,11,7,2,1,49,
scooby_state_4578d5|63|0 0,0,0,0,49,0,0,0,0,0,0,0,0,0,0,49,
scooby_state_4578d5|8|-7 0,0,0,0,49,0,0,0,0,0,0,0,0,0,0,49,
scooby_state_501cf1|35|1 26,5,0,0,2,2,1,1,0,1,0,9,0,0,2,49,
scooby_state_44ba08|19|1 2,47,0,0,0,0,0,0,0,0,0,0,0,0,0,49,
scooby_state_501cf1|38|1 21,4,3,1,2,1,1,1,1,1,0,5,1,2,5,49,
scooby_state_501c59|1|0 49,0,0,0,0,0,0,0,0,0,0,0,0,0,0,49,
scooby_state_507080|52|2 42,7,0,0,0,0,0,0,0,0,0,0,0,0,0,49,
scooby_state_40e8b6|31|1 5,44,0,0,0,0,0,0,0,0,0,0,0,0,0,49,
scooby_state_4578d5|22|-6 0,0,0,0,49,0,0,0,0,0,0,0,0,0,0,49,
scooby_state_454349|56|0 32,5,2,1,1,0,0,1,0,1,0,1,0,1,4,49,
scooby_state_44b9f8|25|1 48,0,0,0,0,0,0,0,0,0,0,0,0,0,0,48,
scooby_state_45436e|51|-1 34,2,2,0,0,1,0,0,0,1,0,3,2,0,3,48,
scooby_state_457dd2|61|0 0,48,0,0,0,0,0,0,0,0,0,0,0,0,0,48,
scooby_state_454349|54|0 34,4,0,1,2,0,1,0,1,1,0,1,2,0,1,48,
scooby_state_4578d5|44|-6 0,0,0,0,47,0,1,0,0,0,0,0,0,0,0,48,
scooby_state_44b9f8|24|1 48,0,0,0,0,0,0,0,0,0,0,0,0,0,0,48,
scooby_state_44b9d5|56|-7 0,1,0,0,0,0,0,0,0,0,0,47,0,0,0,48,
scooby_state_4626c8|3|1 0,17,15,2,1,1,1,2,1,1,0,1,4,0,2,48,
scooby_state_457dbd|22|0 2,45,0,0,0,0,0,0,0,0,0,0,0,0,1,48,
scooby_state_454349|7|4 15,6,3,0,1,4,2,1,1,1,2,2,4,5,1,48,
scooby_state_4626c8|45|1 1,17,17,2,0,0,2,0,3,1,0,0,4,0,1,48,
scooby_state_46c443|20|0 34,3,0,1,1,0,1,0,2,0,0,2,0,2,2,48,
scooby_state_501cf1|20|1 24,1,1,1,1,1,0,0,2,0,0,6,4,3,4,48,
scooby_state_501cf1|18|1 14,10,2,1,0,2,1,0,1,0,2,10,1,1,3,48,
scooby_state_44b9f8|19|1 48,0,0,0,0,0,0,0,0,0,0,0,0,0,0,48,
scooby_state_457dd2|57|0 1,47,0,0,0,0,0,0,0,0,0,0,0,0,0,48,
scooby_state_45436e|9|-1 33,0,1,1,0,0,0,2,0,1,2,4,3,0,1,48,
scooby_state_40e8b6|5|1 2,46,0,0,0,0,0,0,0,0,0,0,0,0,0,48,
scooby_state_40e8b6|8|1 4,44,0,0,0,0,0,0,0,0,0,0,0,0,0,48,
scooby_state_501cf1|33|1 20,8,1,0,0,2,1,2,0,1,0,6,5,0,2,48,
scooby_state_44b9f8|37|1 48,0,0,0,0,0,0,0,0,0,0,0,0,0,0,48,
scooby_state_44b9f8|8|1 48,0,0,0,0,0,0,0,0,0,0,0,0,0,0,48,
scooby_state_4578d5|26|-6 0,0,0,0,48,0,0,0,0,0,0,0,0,0,0,48,
scooby_state_46c443|43|0 32,5,0,0,0,0,1,0,1,0,0,3,3,0,3,48,
scooby_state_501cf1|5|1 21,6,4,1,0,0,0,1,0,2,1,8,1,0,3,48,
scooby_state_4578d5|32|-7 0,0,0,0,48,0,0,0,0,0,0,0,0,0,0,48,
scooby_state_457dd2|43|0 1,47,0,0,0,0,0,0,0,0,0,0,0,0,0,48,
scooby_state_501cf1|2|1 27,2,3,1,0,0,2,1,0,2,0,6,2,0,2,48,
scooby_state_4578d5|13|-7 0,0,0,0,48,0,0,0,0,0,0,0,0,0,0,48,
scooby_state_452f24|0|0 3,8,0,0,0,0,0,0,0,0,1,36,0,0,0,48,
scooby_state_501cf1|11|1 23,1,0,0,1,2,1,0,0,2,1,9,2,2,4,48,
scooby_state_4626c8|20|1 1,16,18,2,0,0,0,0,0,1,1,1,6,1,1,48,
scooby_state_454349|5|0 39,1,0,0,1,0,1,1,0,0,0,0,1,3,1,48,
scooby_state_4578d5|5|-6 0,0,0,0,48,0,0,0,0,0,0,0,0,0,0,48,
scooby_state_43a5de|31|0 0,5,0,39,0,1,0,1,0,0,0,0,1,0,0,47,
scooby_state_45436e|22|-2 42,0,0,1,0,0,0,0,1,1,0,0,0,1,1,47,
scooby_state_4626c8|34|1 1,16,22,0,0,1,1,0,1,0,0,1,3,0,1,47,
scooby_state_454372|39|-1 19,9,0,1,0,1,2,0,2,0,0,13,0,0,0,47,
scooby_state_40e8b6|55|1 4,43,0,0,0,0,0,0,0,0,0,0,0,0,0,47,
scooby_state_40e8b6|42|2 3,44,0,0,0,0,0,0,0,0,0,0,0,0,0,47,
scooby_state_46267c|10|4 0,2,45,0,0,0,0,0,0,0,0,0,0,0,0,47,
scooby_state_45436e|49|-1 35,0,1,1,0,0,0,2,2,1,2,1,0,1,1,47,
scooby_state_45df3c|3|2 1,46,0,0,0,0,0,0,0,0,0,0,0,0,0,47,
scooby_state_40e8b6|14|1 2,44,0,0,0,0,0,1,0,0,0,0,0,0,0,47,
scooby_state_507080|32|2 38,9,0,0,0,0,0,0,0,0,0,0,0,0,0,47,
scooby_state_4578d5|46|-6 0,0,1,0,46,0,0,0,0,0,0,0,0,0,0,47,
scooby_state_45436e|39|0 37,0,1,2,0,0,2,1,0,0,1,1,1,0,1,47,
scooby_state_45436e|16|-1 36,1,0,1,1,2,1,0,0,0,0,1,0,3,1,47,
scooby_state_40e8b6|22|2 5,42,0,0,0,0,0,0,0,0,0,0,0,0,0,47,
scooby_state_501cf1|40|1 29,5,0,0,2,0,1,0,1,0,0,5,3,1,0,47,
scooby_state_44b9f8|9|1 47,0,0,0,0,0,0,0,0,0,0,0,0,0,0,47,
scooby_state_40e8b6|56|1 5,42,0,0,0,0,0,0,0,0,0,0,0,0,0,47,
scooby_state_4578d5|47|-6 0,0,0,0,47,0,0,0,0,0,0,0,0,0,0,47,
scooby_state_4578d5|23|-7 0,0,0,0,47,0,0,0,0,0,0,0,0,0,0,47,
scooby_state_44b9f8|2|1 47,0,0,0,0,0,0,0,0,0,0,0,0,0,0,47,
scooby_state_44b9f8|58|1 47,0,0,0,0,0,0,0,0,0,0,0,0,0,0,47,
scooby_state_501cf1|59|1 29,2,0,1,0,0,0,3,0,1,0,4,2,4,1,47,
scooby_state_40e8b6|18|2 3,44,0,0,0,0,0,0,0,0,0,0,0,0,0,47,
scooby_state_45436e|21|-2 37,0,0,0,1,0,0,2,2,2,0,0,1,1,1,47,
scooby_state_501cf1|43|1 21,7,0,2,0,0,1,0,1,2,1,6,1,2,3,47,
scooby_state_40e8b6|25|1 4,43,0,0,0,0,0,0,0,0,0,0,0,0,0,47,
scooby_state_45436e|56|-1 34,2,1,0,0,0,1,2,1,0,0,2,2,1,1,47,
scooby_state_40e8b6|59|2 4,43,0,0,0,0,0,0,0,0,0,0,0,0,0,47,
scooby_state_46c443|2|0 36,3,1,0,0,0,0,0,0,0,1,2,2,1,1,47,
scooby_state_437238|20|0 0,1,0,2,0,3,6,8,3,2,2,3,3,2,11,46,
scooby_state_43a5de|39|0 0,3,0,40,0,1,0,1,0,0,0,0,1,0,0,46,
scooby_state_4578d5|25|-6 1,0,0,0,45,0,0,0,0,0,0,0,0,0,0,46,
scooby_state_501cf1|17|1 22,3,0,1,3,0,1,1,0,0,2,10,1,0,2,46,
scooby_state_454349|46|0 30,6,1,1,1,1,1,0,0,1,0,0,2,0,2,46,
scooby_state_501cf1|12|1 24,3,1,0,1,1,0,1,1,1,1,8,1,0,3,46,
scooby_state_40e8b6|53|1 4,41,0,1,0,0,0,0,0,0,0,0,0,0,0,46,
scooby_state_454349|48|0 33,4,1,0,1,1,1,1,0,0,1,1,0,1,1,46,
scooby_state_501cf1|60|1 27,5,0,0,0,2,1,2,0,2,0,5,1,0,1,46,
scooby_state_45436e|41|-1 39,0,0,2,0,0,0,0,0,1,0,2,1,1,0,46,
scooby_state_40e900|51|1 46,0,0,0,0,0,0,0,0,0,0,0,0,0,0,46,
scooby_state_45436e|31|-1 42,0,0,0,0,0,0,1,0,1,1,0,0,1,0,46,
scooby_state_40e8b6|20|2 2,44,0,0,0,0,0,0,0,0,0,0,0,0,0,46,
scooby_state_45436e|33|-2 34,0,1,2,1,0,1,1,3,0,0,0,0,2,1,46,
scooby_state_46c443|8|0 33,3,0,1,1,0,1,1,0,0,0,4,1,1,0,46,
scooby_state_43a5de|56|0 0,2,1,41,0,0,0,0,0,1,0,0,0,0,1,46,
scooby_state_4578d5|10|-7 0,0,1,0,45,0,0,0,0,0,0,0,0,0,0,46,
scooby_state_4578d5|52|-7 1,0,0,0,45,0,0,0,0,0,0,0,0,0,0,46,
scooby_state_454372|17|0 23,3,0,1,0,2,2,1,2,3,1,1,2,2,3,46,
scooby_state_4626c8|52|1 1,14,15,2,0,0,1,1,0,0,0,3,5,3,1,46,
scooby_state_40e900|9|1 46,0,0,0,0,0,0,0,0,0,0,0,0,0,0,46,
scooby_state_43a5de|17|0 0,3,0,40,0,0,0,0,1,0,0,0,1,1,0,46,
scooby_state_501cf1|45|1 24,1,1,1,2,0,0,0,0,1,0,13,1,0,2,46,
scooby_state_4626c8|42|1 0,14,21,2,1,0,1,1,1,0,0,0,4,1,0,46,
scooby_state_452f24|18|0 3,5,0,0,0,0,0,0,0,0,1,37,0,0,0,46,
scooby_state_4626c8|8|1 0,9,23,4,0,1,0,1,0,0,2,0,5,0,1,46,
scooby_state_45436e|6|-2 35,0,1,1,1,0,0,1,1,0,2,0,1,1,2,46,
scooby_state_45436e|23|-1 38,0,1,0,0,1,1,0,0,1,1,1,1,1,0,46,
scooby_state_46c443|39|0 33,3,1,1,0,0,1,1,2,1,1,0,0,0,2,46,
scooby_state_46c443|27|0 36,1,1,0,0,1,0,0,1,3,0,1,1,0,1,46,
scooby_state_457dd2|51|0 0,46,0,0,0,0,0,0,0,0,0,0,0,0,0,46,
scooby_state_40e8b6|4|1 4,42,0,0,0,0,0,0,0,0,0,0,0,0,0,46,
scooby_state_40e900|53|1 46,0,0,0,0,0,0,0,0,0,0,0,0,0,0,46,
scooby_state_40e8b6|35|1 1,45,0,0,0,0,0,0,0,0,0,0,0,0,0,46,
scooby_state_4543a0|41|2 10,2,1,0,1,0,1,0,2,0,0,19,6,1,3,46,
scooby_state_45436e|18|-2 38,0,0,2,0,1,0,1,0,0,0,0,1,1,2,46,
scooby_state_452f24|47|0 1,7,0,0,0,0,0,0,0,0,0,38,0,0,0,46,
scooby_state_43a5de|33|0 1,4,0,39,0,0,0,0,0,0,1,0,0,0,1,46,
scooby_state_44b9f8|59|1 46,0,0,0,0,0,0,0,0,0,0,0,0,0,0,46,
scooby_state_507080|28|2 37,9,0,0,0,0,0,0,0,0,0,0,0,0,0,46,
scooby_state_40e8b6|25|2 1,45,0,0,0,0,0,0,0,0,0,0,0,0,0,46,
scooby_state_454349|33|0 33,2,1,0,1,2,2,0,1,1,0,0,0,0,2,45,
scooby_state_46c443|58|0 33,1,2,1,1,0,0,0,2,1,1,2,0,1,0,45,
scooby_state_4578d5|41|-7 0,0,0,0,45,0,0,0,0,0,0,0,0,0,0,45,
scooby_state_43a5de|34|0 0,3,0,37,1,1,0,0,0,0,0,1,0,0,2,45,
scooby_state_45436e|59|-2 34,0,0,1,0,1,1,0,1,0,1,0,1,0,5,45,
scooby_state_4543a0|34|2 4,0,1,0,1,0,2,3,0,1,2,28,2,0,1,45,
scooby_state_507080|29|2 34,11,0,0,0,0,0,0,0,0,0,0,0,0,0,45,
scooby_state_43a5de|40|0 0,5,0,36,0,0,0,1,1,1,0,0,0,1,0,45,
scooby_state_43a5de|48|0 0,0,0,44,0,0,0,0,0,0,0,0,0,0,1,45,
scooby_state_4578d5|62|0 0,0,0,0,45,0,0,0,0,0,0,0,0,0,0,45,
scooby_state_45436e|2|-1 38,0,0,1,0,1,0,1,0,1,0,1,0,1,1,45,
scooby_state_447b9f|10|2 3,0,1,0,12,1,1,1,0,3,0,21,1,1,0,45,
scooby_state_4578d5|55|-7 0,0,0,0,45,0,0,0,0,0,0,0,0,0,0,45,
scooby_state_452f24|43|0 5,9,0,0,0,0,0,0,0,0,1,30,0,0,0,45,
scooby_state_40e8b6|18|1 2,43,0,0,0,0,0,0,0,0,0,0,0,0,0,45,
scooby_state_4626c8|18|1 1,18,18,0,1,0,2,0,0,0,0,0,4,0,1,45,
scooby_state_45436e|19|-1 34,1,1,0,1,1,0,1,1,0,1,2,1,0,1,45,
scooby_state_426e3c|40|0 1,29,0,0,2,0,1,1,1,1,1,5,2,0,1,45,
scooby_state_44b9f8|36|1 44,0,0,1,0,0,0,0,0,0,0,0,0,0,0,45,
scooby_state_40e8b6|61|2 4,41,0,0,0,0,0,0,0,0,0,0,0,0,0,45,
scooby_state_45436e|10|-2 37,1,0,0,1,0,0,0,1,0,1,1,1,1,1,45,
scooby_state_507080|55|2 33,12,0,0,0,0,0,0,0,0,0,0,0,0,0,45,
scooby_state_4578d5|48|-7 1,0,0,0,44,0,0,0,0,0,0,0,0,0,0,45,
scooby_state_45436e|12|-2 41,0,0,1,0,0,0,0,0,1,0,1,0,0,1,45,
scooby_state_4578d5|12|-7 0,0,0,0,45,0,0,0,0,0,0,0,0,0,0,45,
scooby_state_40e8b6|62|2 5,40,0,0,0,0,0,0,0,0,0,0,0,0,0,45,
scooby_state_4578d5|24|-6 0,0,0,0,45,0,0,0,0,0,0,0,0,0,0,45,
scooby_state_45436e|37|-1 36,0,0,0,1,1,1,1,0,1,1,1,0,1,1,45,
scooby_state_501cf1|3|1 24,3,1,3,0,1,2,0,0,0,0,4,4,0,3,45,
scooby_state_4578d5|16|-7 1,0,0,0,44,0,0,0,0,0,0,0,0,0,0,45,
scooby_state_4578d5|56|-7 0,0,0,0,45,0,0,0,0,0,0,0,0,0,0,45,
scooby_state_447b9f|32|2 0,0,0,0,10,0,0,0,1,5,1,24,1,1,2,45,
scooby_state_40e8b6|1|0 3,42,0,0,0,0,0,0,0,0,0,0,0,0,0,45,
scooby_state_40e8b6|34|1 5,39,0,0,1,0,0,0,0,0,0,0,0,0,0,45,
scooby_state_501cf1|51|1 20,3,1,1,0,1,1,2,1,0,0,9,0,0,6,45,
scooby_state_43a5de|19|0 1,2,0,38,0,1,1,0,0,0,1,0,0,0,1,45,
scooby_state_452f24|45|0 2,5,0,0,0,0,0,0,1,0,2,34,0,0,1,45,
scooby_state_43a5de|42|0 1,3,0,38,1,1,0,0,0,0,0,1,0,0,0,45,
scooby_state_4578d5|29|-7 0,0,0,1,44,0,0,0,0,0,0,0,0,0,0,45,
scooby_state_4626c8|21|1 3,17,17,0,0,0,0,0,1,0,1,1,3,1,1,45,
scooby_state_46267c|8|4 0,0,45,0,0,0,0,0,0,0,0,0,0,0,0,45,
scooby_state_45e4b1|6|0 0,45,0,0,0,0,0,0,0,0,0,0,0,0,0,45,
scooby_state_44b9f8|43|1 45,0,0,0,0,0,0,0,0,0,0,0,0,0,0,45,
scooby_state_44b9f8|40|1 45,0,0,0,0,0,0,0,0,0,0,0,0,0,0,45,
scooby_state_4578d5|15|-7 1,0,0,0,44,0,0,0,0,0,0,0,0,0,0,45,
scooby_state_507080|49|2 28,16,0,0,0,0,0,0,0,0,0,0,1,0,0,45,
scooby_state_43a5de|10|0 0,1,0,39,1,0,0,0,1,0,0,0,1,1,1,45,
scooby_state_44b9f8|34|1 45,0,0,0,0,0,0,0,0,0,0,0,0,0,0,45,
scooby_state_40e900|6|1 45,0,0,0,0,0,0,0,0,0,0,0,0,0,0,45,
scooby_state_44b9f8|0|-6 44,0,0,0,0,0,0,0,0,0,1,0,0,0,0,45,
scooby_state_4578d5|35|-6 0,0,0,0,44,0,0,0,0,0,0,0,0,0,0,44,
scooby_state_501cf1|15|1 19,6,1,0,0,0,0,1,1,1,2,5,4,0,4,44,
scooby_state_40e8b6|23|2 5,39,0,0,0,0,0,0,0,0,0,0,0,0,0,44,
scooby_state_507080|0|-7 24,1,0,0,0,0,0,0,0,0,0,0,19,0,0,44,
scooby_state_501cf1|31|1 21,4,0,0,1,2,2,1,1,1,1,3,2,2,3,44,
scooby_state_501cf1|34|1 22,6,0,0,1,0,1,0,1,0,1,5,2,0,5,44,
scooby_state_45436e|38|-2 37,0,0,0,0,0,1,0,2,0,0,2,0,1,1,44,
scooby_state_501cf1|6|1 23,3,0,1,1,0,0,1,1,2,0,5,3,0,4,44,
scooby_state_43a5de|36|0 0,2,0,38,1,0,0,0,2,0,0,0,0,0,1,44,
scooby_state_40e8b6|11|2 3,41,0,0,0,0,0,0,0,0,0,0,0,0,0,44,
scooby_state_40e8b6|39|2 3,41,0,0,0,0,0,0,0,0,0,0,0,0,0,44,
scooby_state_45e4b1|5|0 0,44,0,0,0,0,0,0,0,0,0,0,0,0,0,44,
scooby_state_454372|30|-1 16,8,0,0,0,0,0,1,1,1,0,13,1,2,1,44,
scooby_state_452f24|12|0 1,3,0,0,0,0,0,0,0,0,1,39,0,0,0,44,
scooby_state_501cf1|53|1 16,3,2,1,1,1,1,0,0,3,1,9,2,0,4,44,
scooby_state_40e8b6|26|2 5,38,0,0,0,0,0,0,0,1,0,0,0,0,0,44,
scooby_state_4626c8|28|1 0,15,23,1,1,0,0,0,0,0,0,1,2,1,0,44,
scooby_state_40e8b6|44|1 2,42,0,0,0,0,0,0,0,0,0,0,0,0,0,44,
scooby_state_447b9f|23|1 0,1,0,0,11,0,0,0,1,25,0,3,0,2,1,44,
scooby_state_45436e|14|-1 37,1,1,1,1,0,0,0,1,0,2,0,0,0,0,44,
scooby_state_40e8b6|48|1 3,41,0,0,0,0,0,0,0,0,0,0,0,0,0,44,
scooby_state_44b9f8|15|1 44,0,0,0,0,0,0,0,0,0,0,0,0,0,0,44,
scooby_state_457dbd|24|0 1,42,0,0,0,0,0,1,0,0,0,0,0,0,0,44,
scooby_state_4578d5|1|-7 0,0,0,0,44,0,0,0,0,0,0,0,0,0,0,44,
scooby_state_40e900|11|1 44,0,0,0,0,0,0,0,0,0,0,0,0,0,0,44,
scooby_state_454349|63|0 30,3,1,0,4,2,1,2,1,0,0,0,0,0,0,44,
scooby_state_452f40|16|0 44,0,0,0,0,0,0,0,0,0,0,0,0,0,0,44,
scooby_state_4626c8|25|1 1,16,17,1,1,0,0,0,0,2,0,2,3,1,0,44,
scooby_state_40e1df|39|0 0,0,0,0,0,0,0,0,0,0,0,44,0,0,0,44,
scooby_state_452f24|4|0 1,3,0,0,0,0,0,0,0,0,0,39,0,0,1,44,
scooby_state_454372|45|-2 26,7,2,0,0,1,0,1,1,0,1,2,1,1,1,44,
scooby_state_4578d5|30|-7 2,0,0,0,42,0,0,0,0,0,0,0,0,0,0,44,
scooby_state_46267c|4|3 5,16,23,0,0,0,0,0,0,0,0,0,0,0,0,44,
scooby_state_501cf1|52|1 21,5,1,0,0,1,0,1,0,1,0,9,2,3,0,44,
scooby_state_45436e|18|-1 35,0,0,2,3,0,1,0,1,0,0,2,0,0,0,44,
scooby_state_452f24|62|0 4,3,0,0,0,0,0,0,1,1,1,33,0,1,0,44,
scooby_state_40e8b6|33|2 2,42,0,0,0,0,0,0,0,0,0,0,0,0,0,44,
scooby_state_46267c|16|3 6,19,18,0,0,0,0,0,0,0,0,0,0,0,0,43,
scooby_state_45e4b1|48|0 0,43,0,0,0,0,0,0,0,0,0,0,0,0,0,43,
scooby_state_507080|9|2 37,6,0,0,0,0,0,0,0,0,0,0,0,0,0,43,
[...]
scooby_state_454349|20|16 0,0,0,0,0,1,0,0,0,0,0,0,0,0,0,1,
scooby_state_45df3c|36|1 0,1,0,0,0,0,0,0,0,0,0,0,0,0,0,1,
scooby_state_454801|53|17 0,0,0,0,0,0,0,0,0,0,0,0,1,0,0,1,
scooby_state_40defd|1|-2 0,1,0,0,0,0,0,0,0,0,0,0,0,0,0,1,
scooby_state_42811b|56|-1 0,1,0,0,0,0,0,0,0,0,0,0,0,0,0,1,
scooby_state_42667f|26|-17 0,1,0,0,0,0,0,0,0,0,0,0,0,0,0,1,
scooby_state_454349|34|-22 0,0,0,0,1,0,0,0,0,0,0,0,0,0,0,1,
scooby_state_454647|27|27 1,0,0,0,0,0,0,0,0,0,0,0,0,0,0,1,
scooby_state_45438b|32|0 1,0,0,0,0,0,0,0,0,0,0,0,0,0,0,1,
scooby_state_40ea06|6|1 1,0,0,0,0,0,0,0,0,0,0,0,0,0,0,1,
scooby_state_44b9f8|28|-24 1,0,0,0,0,0,0,0,0,0,0,0,0,0,0,1,
scooby_state_46c46b|34|0 1,0,0,0,0,0,0,0,0,0,0,0,0,0,0,1,
scooby_state_409898|61|33 1,0,0,0,0,0,0,0,0,0,0,0,0,0,0,1,
scooby_state_406cb5|40|1 0,1,0,0,0,0,0,0,0,0,0,0,0,0,0,1,
scooby_state_45438b|25|9 0,1,0,0,0,0,0,0,0,0,0,0,0,0,0,1,
scooby_state_4626ee|39|1 0,0,0,0,0,0,0,0,0,0,0,1,0,0,0,1,
scooby_state_40de90|58|7 1,0,0,0,0,0,0,0,0,0,0,0,0,0,0,1,
scooby_state_4547b9|49|0 0,0,0,0,0,0,0,0,0,0,0,1,0,0,0,1,
scooby_state_454801|2|-18 0,0,0,0,0,0,0,0,0,1,0,0,0,0,0,1,
scooby_state_40e978|42|0 1,0,0,0,0,0,0,0,0,0,0,0,0,0,0,1,
scooby_state_40bdf2|28|-7 0,1,0,0,0,0,0,0,0,0,0,0,0,0,0,1,
scooby_state_402ed0|28|-1 0,1,0,0,0,0,0,0,0,0,0,0,0,0,0,1,
scooby_state_46c443|24|-16 1,0,0,0,0,0,0,0,0,0,0,0,0,0,0,1,
scooby_state_454801|5|5 1,0,0,0,0,0,0,0,0,0,0,0,0,0,0,1,
scooby_state_45506a|28|1 0,1,0,0,0,0,0,0,0,0,0,0,0,0,0,1,
scooby_state_43a5de|10|-12 1,0,0,0,0,0,0,0,0,0,0,0,0,0,0,1,
scooby_state_43fb0a|13|-2 1,0,0,0,0,0,0,0,0,0,0,0,0,0,0,1,
scooby_state_44a8c9|41|9 0,1,0,0,0,0,0,0,0,0,0,0,0,0,0,1,
scooby_state_428141|5|1 0,1,0,0,0,0,0,0,0,0,0,0,0,0,0,1,
scooby_state_4626e8|50|4 1,0,0,0,0,0,0,0,0,0,0,0,0,0,0,1,
scooby_state_440750|29|0 1,0,0,0,0,0,0,0,0,0,0,0,0,0,0,1,
scooby_state_452f34|23|-39 1,0,0,0,0,0,0,0,0,0,0,0,0,0,0,1,
scooby_state_454349|24|-29 0,1,0,0,0,0,0,0,0,0,0,0,0,0,0,1,
scooby_state_4542c3|59|0 0,0,0,0,0,1,0,0,0,0,0,0,0,0,0,1,
scooby_state_454600|24|9 1,0,0,0,0,0,0,0,0,0,0,0,0,0,0,1,
scooby_state_452f24|30|-27 1,0,0,0,0,0,0,0,0,0,0,0,0,0,0,1,
scooby_state_40c4fb|23|-37 1,0,0,0,0,0,0,0,0,0,0,0,0,0,0,1,
scooby_state_452f34|58|48 1,0,0,0,0,0,0,0,0,0,0,0,0,0,0,1,
scooby_state_44bd02|52|11 1,0,0,0,0,0,0,0,0,0,0,0,0,0,0,1,
scooby_state_501cf1|26|7 1,0,0,0,0,0,0,0,0,0,0,0,0,0,0,1,
scooby_state_40e884|61|13 1,0,0,0,0,0,0,0,0,0,0,0,0,0,0,1,
scooby_state_454626|46|21 0,0,0,0,0,0,0,0,0,0,0,0,1,0,0,1,
scooby_state_46c430|55|0 1,0,0,0,0,0,0,0,0,0,0,0,0,0,0,1,
scooby_state_42817b|31|0 0,1,0,0,0,0,0,0,0,0,0,0,0,0,0,1,
scooby_state_45435a|46|2 0,0,0,0,0,0,0,0,0,1,0,0,0,0,0,1,
scooby_state_4542f9|11|0 0,1,0,0,0,0,0,0,0,0,0,0,0,0,0,1,
scooby_state_5025c6|59|0 1,0,0,0,0,0,0,0,0,0,0,0,0,0,0,1,
scooby_state_50281f|0|0 0,0,1,0,0,0,0,0,0,0,0,0,0,0,0,1,
scooby_state_457c5c|49|0 1,0,0,0,0,0,0,0,0,0,0,0,0,0,0,1,
scooby_state_454349|61|3 0,0,0,0,0,0,0,0,0,0,0,1,0,0,0,1,
scooby_state_43fd7d|25|-1 0,1,0,0,0,0,0,0,0,0,0,0,0,0,0,1,
scooby_state_457dd2|55|31 0,1,0,0,0,0,0,0,0,0,0,0,0,0,0,1,
scooby_state_46ca4c|41|2 0,1,0,0,0,0,0,0,0,0,0,0,0,0,0,1,
scooby_state_40eac0|43|34 0,1,0,0,0,0,0,0,0,0,0,0,0,0,0,1,
scooby_state_44a8c0|35|1 0,0,1,0,0,0,0,0,0,0,0,0,0,0,0,1,
scooby_state_454351|12|1 1,0,0,0,0,0,0,0,0,0,0,0,0,0,0,1,
scooby_state_42817e|45|3 0,0,0,0,0,0,0,0,0,0,0,1,0,0,0,1,
scooby_state_40bda3|52|1 0,0,0,0,0,1,0,0,0,0,0,0,0,0,0,1,
scooby_state_4542e9|21|1 0,0,0,0,0,0,0,0,1,0,0,0,0,0,0,1,
scooby_state_428104|56|5 0,0,0,0,1,0,0,0,0,0,0,0,0,0,0,1,
scooby_state_4542e9|36|-1 0,0,0,0,1,0,0,0,0,0,0,0,0,0,0,1,
scooby_state_428104|40|5 0,0,0,0,0,1,0,0,0,0,0,0,0,0,0,1,
scooby_state_44a8dc|33|0 1,0,0,0,0,0,0,0,0,0,0,0,0,0,0,1,
scooby_state_4550a8|24|0 1,0,0,0,0,0,0,0,0,0,0,0,0,0,0,1,
scooby_state_46c451|1|0 0,1,0,0,0,0,0,0,0,0,0,0,0,0,0,1,
scooby_state_452f24|20|9 0,0,0,0,0,0,0,0,0,0,0,1,0,0,0,1,
scooby_state_454349|18|-15 1,0,0,0,0,0,0,0,0,0,0,0,0,0,0,1,
scooby_state_46267c|50|14 0,0,0,0,1,0,0,0,0,0,0,0,0,0,0,1,
scooby_state_504485|18|1 0,1,0,0,0,0,0,0,0,0,0,0,0,0,0,1,
scooby_state_40e900|0|-55 1,0,0,0,0,0,0,0,0,0,0,0,0,0,0,1,
scooby_state_44a9d4|47|0 0,1,0,0,0,0,0,0,0,0,0,0,0,0,0,1,
scooby_state_42842d|63|2 1,0,0,0,0,0,0,0,0,0,0,0,0,0,0,1,
scooby_state_46267c|27|14 0,1,0,0,0,0,0,0,0,0,0,0,0,0,0,1,
scooby_state_43fb0a|6|-42 0,1,0,0,0,0,0,0,0,0,0,0,0,0,0,1,
scooby_state_43fb0a|26|-19 0,1,0,0,0,0,0,0,0,0,0,0,0,0,0,1,
scooby_state_43fb0a|0|-25 0,0,0,0,1,0,0,0,0,0,0,0,0,0,0,1,
scooby_state_426458|37|-1 0,0,1,0,0,0,0,0,0,0,0,0,0,0,0,1,
scooby_state_454670|40|-1 0,0,0,0,0,1,0,0,0,0,0,0,0,0,0,1,
scooby_state_435ddd|55|0 1,0,0,0,0,0,0,0,0,0,0,0,0,0,0,1,
scooby_state_4497e9|0|-33 0,1,0,0,0,0,0,0,0,0,0,0,0,0,0,1,
scooby_state_44b9d5|51|-12 0,1,0,0,0,0,0,0,0,0,0,0,0,0,0,1,
scooby_state_42811b|52|-1 0,1,0,0,0,0,0,0,0,0,0,0,0,0,0,1,
scooby_state_40c748|12|-1 0,1,0,0,0,0,0,0,0,0,0,0,0,0,0,1,
scooby_state_4269f0|39|0 1,0,0,0,0,0,0,0,0,0,0,0,0,0,0,1,
scooby_state_45438b|42|-2 0,0,0,0,0,0,0,0,0,0,0,0,0,0,1,1,
scooby_state_40deb1|19|1 1,0,0,0,0,0,0,0,0,0,0,0,0,0,0,1,
scooby_state_454349|39|-3 0,0,0,0,0,0,0,0,0,0,0,0,1,0,0,1,
scooby_state_43fd5f|31|-1 0,1,0,0,0,0,0,0,0,0,0,0,0,0,0,1,
scooby_state_44ba58|0|-2 1,0,0,0,0,0,0,0,0,0,0,0,0,0,0,1,
scooby_state_43a5de|7|-45 0,0,0,0,0,0,0,0,0,0,0,0,0,0,1,1,
scooby_state_409898|61|15 1,0,0,0,0,0,0,0,0,0,0,0,0,0,0,1,
scooby_state_454f30|38|2 1,0,0,0,0,0,0,0,0,0,0,0,0,0,0,1,
scooby_state_426b87|54|-1 1,0,0,0,0,0,0,0,0,0,0,0,0,0,0,1,
scooby_state_44a8dc|5|0 1,0,0,0,0,0,0,0,0,0,0,0,0,0,0,1,
scooby_state_40e8c0|35|1 1,0,0,0,0,0,0,0,0,0,0,0,0,0,0,1,
scooby_state_44ba58|12|-2 0,0,1,0,0,0,0,0,0,0,0,0,0,0,0,1,
scooby_state_4542e9|31|-2 0,1,0,0,0,0,0,0,0,0,0,0,0,0,0,1,
scooby_state_4542f9|25|0 0,1,0,0,0,0,0,0,0,0,0,0,0,0,0,1,
scooby_state_457dc5|50|17 0,1,0,0,0,0,0,0,0,0,0,0,0,0,0,1,
scooby_state_452f24|62|4 0,0,0,0,0,0,0,0,0,0,0,1,0,0,0,1,
scooby_state_46c443|14|-38 0,0,0,0,0,0,0,0,0,0,0,1,0,0,0,1,
scooby_state_46c46b|2|-30 0,1,0,0,0,0,0,0,0,0,0,0,0,0,0,1,
scooby_state_45478d|40|34 0,0,1,0,0,0,0,0,0,0,0,0,0,0,0,1,
scooby_state_402ed0|61|-1 0,1,0,0,0,0,0,0,0,0,0,0,0,0,0,1,
scooby_state_4547b9|16|0 0,0,0,0,0,0,0,0,0,0,0,1,0,0,0,1,
scooby_state_40db76|46|-3 0,1,0,0,0,0,0,0,0,0,0,0,0,0,0,1,
scooby_state_454801|30|22 0,1,0,0,0,0,0,0,0,0,0,0,0,0,0,1,
scooby_state_454349|36|-7 1,0,0,0,0,0,0,0,0,0,0,0,0,0,0,1,
scooby_state_45435a|55|2 0,1,0,0,0,0,0,0,0,0,0,0,0,0,0,1,
scooby_state_40e060|43|-7 1,0,0,0,0,0,0,0,0,0,0,0,0,0,0,1,
scooby_state_407243|9|1 1,0,0,0,0,0,0,0,0,0,0,0,0,0,0,1,
scooby_state_501cf1|37|0 0,0,0,0,0,0,0,0,0,0,0,0,0,0,1,1,
scooby_state_44ba58|51|-1 0,1,0,0,0,0,0,0,0,0,0,0,0,0,0,1,
scooby_state_454349|49|9 0,1,0,0,0,0,0,0,0,0,0,0,0,0,0,1,
scooby_state_454349|44|-17 0,0,0,0,0,1,0,0,0,0,0,0,0,0,0,1,
scooby_state_454349|44|4 0,0,0,0,0,0,0,0,1,0,0,0,0,0,0,1,
scooby_state_44a8c9|23|-35 1,0,0,0,0,0,0,0,0,0,0,0,0,0,0,1,
scooby_state_501c59|39|1 1,0,0,0,0,0,0,0,0,0,0,0,0,0,0,1,
scooby_state_46c443|26|-2 0,0,0,0,0,0,0,0,0,0,0,0,0,1,0,1,
scooby_state_43d720|46|-7 1,0,0,0,0,0,0,0,0,0,0,0,0,0,0,1,
scooby_state_454801|18|0 1,0,0,0,0,0,0,0,0,0,0,0,0,0,0,1,
scooby_state_454349|47|-1 1,0,0,0,0,0,0,0,0,0,0,0,0,0,0,1,
scooby_state_43d725|30|-1 0,0,0,0,1,0,0,0,0,0,0,0,0,0,0,1,
scooby_state_425b50|58|1 0,0,0,0,0,0,0,0,0,1,0,0,0,0,0,1,
scooby_state_502ad7|19|0 0,1,0,0,0,0,0,0,0,0,0,0,0,0,0,1,
scooby_state_457dd2|38|31 0,1,0,0,0,0,0,0,0,0,0,0,0,0,0,1,
scooby_state_402ac0|43|0 1,0,0,0,0,0,0,0,0,0,0,0,0,0,0,1,
scooby_state_40bd2a|59|-2 1,0,0,0,0,0,0,0,0,0,0,0,0,0,0,1,
scooby_state_43d720|54|-8 1,0,0,0,0,0,0,0,0,0,0,0,0,0,0,1,
scooby_state_40e7b5|31|3 1,0,0,0,0,0,0,0,0,0,0,0,0,0,0,1,
scooby_state_40e860|29|-2 1,0,0,0,0,0,0,0,0,0,0,0,0,0,0,1,
scooby_state_447bc5|7|1 1,0,0,0,0,0,0,0,0,0,0,0,0,0,0,1,
scooby_state_4542e6|59|-1 0,0,0,0,0,0,0,1,0,0,0,0,0,0,0,1,
scooby_state_40e060|60|-3 1,0,0,0,0,0,0,0,0,0,0,0,0,0,0,1,
scooby_state_46c443|34|31 1,0,0,0,0,0,0,0,0,0,0,0,0,0,0,1,
scooby_state_40b9c9|27|-32 0,0,0,1,0,0,0,0,0,0,0,0,0,0,0,1,
scooby_state_40defd|18|-2 0,1,0,0,0,0,0,0,0,0,0,0,0,0,0,1,
scooby_state_454349|44|-8 0,1,0,0,0,0,0,0,0,0,0,0,0,0,0,1,
scooby_state_43ffd0|63|1 0,1,0,0,0,0,0,0,0,0,0,0,0,0,0,1,
scooby_state_44a8c9|58|52 1,0,0,0,0,0,0,0,0,0,0,0,0,0,0,1,
scooby_state_4550a8|11|0 1,0,0,0,0,0,0,0,0,0,0,0,0,0,0,1,
scooby_state_43d720|10|-8 1,0,0,0,0,0,0,0,0,0,0,0,0,0,0,1,
scooby_state_4542f9|6|2 0,0,0,0,0,0,0,0,0,0,0,0,1,0,0,1,
scooby_state_501cf1|26|4 0,0,0,0,0,0,0,0,0,0,0,1,0,0,0,1,
scooby_state_44ba50|41|1 0,1,0,0,0,0,0,0,0,0,0,0,0,0,0,1,
scooby_state_447c4c|24|1 1,0,0,0,0,0,0,0,0,0,0,0,0,0,0,1,
scooby_state_43fca0|25|2 1,0,0,0,0,0,0,0,0,0,0,0,0,0,0,1,
scooby_state_452f40|37|-19 1,0,0,0,0,0,0,0,0,0,0,0,0,0,0,1,
scooby_state_44a8c9|31|3 1,0,0,0,0,0,0,0,0,0,0,0,0,0,0,1,
scooby_state_454349|50|12 0,1,0,0,0,0,0,0,0,0,0,0,0,0,0,1,
scooby_state_4283db|5|1 1,0,0,0,0,0,0,0,0,0,0,0,0,0,0,1,
scooby_state_46c46b|8|0 0,0,0,0,0,0,0,0,0,1,0,0,0,0,0,1,
scooby_state_502744|44|0 0,1,0,0,0,0,0,0,0,0,0,0,0,0,0,1,
scooby_state_45438b|0|-39 0,1,0,0,0,0,0,0,0,0,0,0,0,0,0,1,
scooby_state_43a5de|4|-59 0,1,0,0,0,0,0,0,0,0,0,0,0,0,0,1,
scooby_state_454801|55|21 0,0,0,0,0,0,0,0,0,0,0,0,0,0,1,1,
scooby_state_4626e8|59|4 0,0,0,0,1,0,0,0,0,0,0,0,0,0,0,1,
scooby_state_454349|25|25 1,0,0,0,0,0,0,0,0,0,0,0,0,0,0,1,
scooby_state_4550a8|8|0 1,0,0,0,0,0,0,0,0,0,0,0,0,0,0,1,
scooby_state_454801|60|4 0,0,0,0,1,0,0,0,0,0,0,0,0,0,0,1,
scooby_state_43fd5f|51|0 0,1,0,0,0,0,0,0,0,0,0,0,0,0,0,1,
scooby_state_44b9f8|36|-4 1,0,0,0,0,0,0,0,0,0,0,0,0,0,0,1,
scooby_state_43fd7d|4|-1 0,1,0,0,0,0,0,0,0,0,0,0,0,0,0,1,
scooby_state_4543a0|60|1 1,0,0,0,0,0,0,0,0,0,0,0,0,0,0,1,
scooby_state_457dbd|31|-24 0,1,0,0,0,0,0,0,0,0,0,0,0,0,0,1,
scooby_state_454349|61|5 0,1,0,0,0,0,0,0,0,0,0,0,0,0,0,1,
scooby_state_4b6ac3|43|1 1,0,0,0,0,0,0,0,0,0,0,0,0,0,0,1,
scooby_state_43a5de|53|-10 0,0,0,1,0,0,0,0,0,0,0,0,0,0,0,1,
scooby_state_44a8c9|62|43 0,0,0,0,1,0,0,0,0,0,0,0,0,0,0,1,
scooby_state_44a8c9|30|-3 0,1,0,0,0,0,0,0,0,0,0,0,0,0,0,1,
scooby_state_457dc5|18|10 0,1,0,0,0,0,0,0,0,0,0,0,0,0,0,1,
scooby_state_454349|45|-2 0,1,0,0,0,0,0,0,0,0,0,0,0,0,0,1,
scooby_state_46267c|15|8 0,1,0,0,0,0,0,0,0,0,0,0,0,0,0,1,
scooby_state_452f24|31|10 0,1,0,0,0,0,0,0,0,0,0,0,0,0,0,1,
scooby_state_502ad7|47|0 0,1,0,0,0,0,0,0,0,0,0,0,0,0,0,1,
scooby_state_4283db|4|0 0,1,0,0,0,0,0,0,0,0,0,0,0,0,0,1,
scooby_state_452f34|1|0 1,0,0,0,0,0,0,0,0,0,0,0,0,0,0,1,
scooby_state_4626e8|37|5 0,1,0,0,0,0,0,0,0,0,0,0,0,0,0,1,
scooby_state_4b6a80|42|1 0,0,0,0,0,1,0,0,0,0,0,0,0,0,0,1,
scooby_state_454626|34|25 0,0,0,0,0,0,0,0,0,0,0,1,0,0,0,1,
scooby_state_454349|4|-6 1,0,0,0,0,0,0,0,0,0,0,0,0,0,0,1,
scooby_state_46c443|54|-1 1,0,0,0,0,0,0,0,0,0,0,0,0,0,0,1,
scooby_state_40c502|20|-33 0,0,0,1,0,0,0,0,0,0,0,0,0,0,0,1,
scooby_state_4547b6|34|-10 0,0,0,0,0,0,0,0,1,0,0,0,0,0,0,1,
scooby_state_45438b|16|-1 1,0,0,0,0,0,0,0,0,0,0,0,0,0,0,1,
scooby_state_44a8c9|41|-4 1,0,0,0,0,0,0,0,0,0,0,0,0,0,0,1,
scooby_state_4283f9|45|0 0,1,0,0,0,0,0,0,0,0,0,0,0,0,0,1,
scooby_state_454351|60|2 0,0,0,0,0,0,0,0,0,0,0,1,0,0,0,1,
scooby_state_454349|34|-4 0,1,0,0,0,0,0,0,0,0,0,0,0,0,0,1,
scooby_state_44a8c9|38|0 1,0,0,0,0,0,0,0,0,0,0,0,0,0,0,1,
scooby_state_40c37c|45|1 0,1,0,0,0,0,0,0,0,0,0,0,0,0,0,1,
scooby_state_426413|35|-1 1,0,0,0,0,0,0,0,0,0,0,0,0,0,0,1,
scooby_state_454f30|29|11 0,1,0,0,0,0,0,0,0,0,0,0,0,0,0,1,
scooby_state_452f40|5|-9 1,0,0,0,0,0,0,0,0,0,0,0,0,0,0,1,
scooby_state_452f24|36|-5 0,0,0,0,0,0,0,0,0,0,0,1,0,0,0,1,
scooby_state_44a8dc|4|0 1,0,0,0,0,0,0,0,0,0,0,0,0,0,0,1,
scooby_state_426b87|57|0 0,1,0,0,0,0,0,0,0,0,0,0,0,0,0,1,
scooby_state_4542e6|34|-2 0,1,0,0,0,0,0,0,0,0,0,0,0,0,0,1,
scooby_state_454349|23|4 0,1,0,0,0,0,0,0,0,0,0,0,0,0,0,1,
scooby_state_4547b9|50|0 1,0,0,0,0,0,0,0,0,0,0,0,0,0,0,1,
scooby_state_454351|17|-42 0,0,0,0,0,1,0,0,0,0,0,0,0,0,0,1,
scooby_state_46c443|63|17 0,1,0,0,0,0,0,0,0,0,0,0,0,0,0,1,
scooby_state_452f34|24|4 1,0,0,0,0,0,0,0,0,0,0,0,0,0,0,1,
scooby_state_454670|50|0 0,1,0,0,0,0,0,0,0,0,0,0,0,0,0,1,
scooby_state_40bdf2|32|-7 0,1,0,0,0,0,0,0,0,0,0,0,0,0,0,1,
scooby_state_43d72c|27|-4 0,1,0,0,0,0,0,0,0,0,0,0,0,0,0,1,
scooby_state_46267c|34|14 0,1,0,0,0,0,0,0,0,0,0,0,0,0,0,1,
scooby_state_501cf1|44|5 0,0,0,0,0,0,0,0,0,0,1,0,0,0,0,1,
scooby_state_426f80|62|1 1,0,0,0,0,0,0,0,0,0,0,0,0,0,0,1,
scooby_state_4626e8|4|0 0,1,0,0,0,0,0,0,0,0,0,0,0,0,0,1,
scooby_state_409898|3|0 0,1,0,0,0,0,0,0,0,0,0,0,0,0,0,1,
scooby_state_4542f9|18|0 1,0,0,0,0,0,0,0,0,0,0,0,0,0,0,1,
scooby_state_502a51|40|0 0,0,0,0,0,0,0,0,0,0,0,0,1,0,0,1,
scooby_state_426413|63|7 0,1,0,0,0,0,0,0,0,0,0,0,0,0,0,1,
scooby_state_454626|48|17 0,0,0,0,0,0,0,0,0,0,0,1,0,0,0,1,
scooby_state_40cac6|12|-31 0,0,0,0,0,0,0,0,0,0,0,1,0,0,0,1,
scooby_state_4542f9|26|0 0,1,0,0,0,0,0,0,0,0,0,0,0,0,0,1,
scooby_state_4548b4|34|5 0,1,0,0,0,0,0,0,0,0,0,0,0,0,0,1,

scooby_action_0_deg_dist 0,7380,0,0,0,0,0,0,0,0,0,0,0,0,0,0,
scooby_action_-6_deg_dist 0,2548,3,0,0,0,0,0,0,0,0,0,0,0,0,0,
scooby_action_4_deg_dist 0,7928,758,0,81,0,0,0,0,0,0,0,0,0,0,0,
scooby_action_1_deg_dist 0,91552,5302,0,1752,0,783,0,0,0,0,0,0,0,0,0,
scooby_action_30_deg_dist 0,3550,115,0,5,0,0,0,0,0,0,0,0,0,0,0,
scooby_action_5_deg_dist 0,5872,2,0,0,0,0,0,0,0,0,0,0,0,0,0,
scooby_action_3_deg_dist 0,54554,6010,0,3372,0,481,0,0,0,0,0,0,0,0,0,
scooby_action_32_deg_dist 0,1531,4,0,0,0,0,0,0,0,0,0,0,0,0,0,
scooby_action_10_deg_dist 0,10339,216,0,202,0,43,0,0,0,0,0,0,0,0,0,
scooby_action_11_deg_dist 0,2951,4,0,1,0,0,0,0,0,0,0,0,0,0,0,
scooby_action_12_deg_dist 0,3011,13,0,0,0,0,0,0,0,0,0,0,0,0,0,
scooby_action_22_deg_dist 0,1678,0,0,0,0,0,0,0,0,0,0,0,0,0,0,
scooby_action_23_deg_dist 0,1721,0,0,0,0,0,0,0,0,0,0,0,0,0,0,
scooby_action_-1_deg_dist 0,17364,159,0,135,0,7,0,0,0,0,0,0,0,0,0,
scooby_action_-3_deg_dist 0,6850,11,0,4,0,0,0,0,0,0,0,0,0,0,0,

scooby_track_called 238292
scooby_track_same_address 30377
scooby_track_evict 207659

scooby_reward_demand_called 238292
scooby_reward_demand_pt_not_found 162783
scooby_reward_demand_pt_found 75509
scooby_reward_demand_pt_found_total 75509
scooby_reward_demand_has_reward 173
scooby_reward_train_called 120151
scooby_reward_assign_reward_called 207739
scooby_reward_no_pref 7373
scooby_reward_incorrect 112778
scooby_reward_correct_untimely 28645
scooby_reward_correct_timely 46691
scooby_reward_out_of_bounds 12252
scooby_reward_tracker_hit 0

scooby_reward_none_low_bw 7373
scooby_reward_none_high_bw 0
scooby_reward_incorrect_low_bw 112778
scooby_reward_incorrect_high_bw 0
scooby_reward_correct_untimely_low_bw 28645
scooby_reward_correct_untimely_high_bw 0
scooby_reward_correct_timely_low_bw 46691
scooby_reward_correct_timely_high_bw 0
scooby_reward_out_of_bounds_low_bw 12252
scooby_reward_out_of_bounds_high_bw 0
scooby_reward_tracker_hit_low_bw 0
scooby_reward_tracker_hit_high_bw 0

scooby_reward_1 0,50228,16660,14132,1469,0,
scooby_reward_3 0,29197,8532,21761,2985,0,
scooby_reward_4 0,5182,548,1709,564,0,
scooby_reward_5 0,4336,433,674,384,0,
scooby_reward_10 0,2756,168,2768,1529,0,
scooby_reward_11 0,1861,2,359,487,0,
scooby_reward_12 0,1851,1,338,515,0,
scooby_reward_22 0,1094,0,1,562,0,
scooby_reward_23 0,1110,0,0,600,0,
scooby_reward_30 0,1330,0,669,1649,0,
scooby_reward_32 0,787,0,14,719,0,
scooby_reward_-1 0,7804,2269,2446,250,0,
scooby_reward_-3 0,3591,25,1818,350,0,
scooby_reward_-6 0,1651,7,2,189,0,
scooby_reward_0 7373,0,0,0,0,0,

scooby_train_called 207658
scooby_train_compute_reward 120151

scooby_register_fill_called 148445
scooby_register_fill_set 131481
scooby_register_fill_set_total 131481

scooby_register_prefetch_hit_called 36690
scooby_register_prefetch_hit_set 30763
scooby_register_prefetch_hit_set_total 30763

scooby_pref_issue_scooby 215610

learning_engine_featurewise.action.called 238292
learning_engine_featurewise.action.explore 457
learning_engine_featurewise.action.exploit 237835
learning_engine_featurewise.action.fallback 34484
learning_engine_featurewise.action.dyn_fallback_saved_bw 0
learning_engine_featurewise.action.dyn_fallback_saved_bw_acc 10398
learning_engine_featurewise.action.index_1_explored 27
learning_engine_featurewise.action.index_1_exploited 99362
learning_engine_featurewise.action.index_3_explored 32
learning_engine_featurewise.action.index_3_exploited 64385
learning_engine_featurewise.action.index_4_explored 26
learning_engine_featurewise.action.index_4_exploited 8741
learning_engine_featurewise.action.index_5_explored 30
learning_engine_featurewise.action.index_5_exploited 5844
learning_engine_featurewise.action.index_10_explored 39
learning_engine_featurewise.action.index_10_exploited 10761
learning_engine_featurewise.action.index_11_explored 31
learning_engine_featurewise.action.index_11_exploited 2925
learning_engine_featurewise.action.index_12_explored 31
learning_engine_featurewise.action.index_12_exploited 2993
learning_engine_featurewise.action.index_22_explored 34
learning_engine_featurewise.action.index_22_exploited 1644
learning_engine_featurewise.action.index_23_explored 27
learning_engine_featurewise.action.index_23_exploited 1694
learning_engine_featurewise.action.index_30_explored 36
learning_engine_featurewise.action.index_30_exploited 3634
learning_engine_featurewise.action.index_32_explored 25
learning_engine_featurewise.action.index_32_exploited 1510
learning_engine_featurewise.action.index_-1_explored 33
learning_engine_featurewise.action.index_-1_exploited 17632
learning_engine_featurewise.action.index_-3_explored 27
learning_engine_featurewise.action.index_-3_exploited 6838
learning_engine_featurewise.action.index_-6_explored 24
learning_engine_featurewise.action.index_-6_exploited 2527
learning_engine_featurewise.action.index_0_explored 35
learning_engine_featurewise.action.index_0_exploited 7345
learning_engine_featurewise.learn.called 207658
learning_engine_featurewise.learn.su_skip_PC 0
learning_engine_featurewise.learn.su_skip_PC_Delta 0

learning_engine_featurewise.q_value_histogram.bucket_0 0
learning_engine_featurewise.q_value_histogram.bucket_1 614
learning_engine_featurewise.q_value_histogram.bucket_2 48413
learning_engine_featurewise.q_value_histogram.bucket_3 29008
learning_engine_featurewise.q_value_histogram.bucket_4 39530
learning_engine_featurewise.q_value_histogram.bucket_5 47059
learning_engine_featurewise.q_value_histogram.bucket_6 73211
learning_engine_featurewise.q_value_histogram.bucket_7 0

learning_engine_featurewise.consensus.total 237835
learning_engine_featurewise.consensus.feature_align_PC 186275
learning_engine_featurewise.consensus.feature_align_PC_ratio 0.78
learning_engine_featurewise.consensus.feature_align_PC_Delta 190593
learning_engine_featurewise.consensus.feature_align_PC_Delta_ratio 0.80
learning_engine_featurewise.consensus.feature_align_all 139644
learning_engine_featurewise.consensus.feature_align_all_ratio 0.59

learning_engine_featurewise.feature_PC_min_weight 1000000.00000000
learning_engine_featurewise.feature_PC_max_weight 0.00000000
learning_engine_featurewise.feature_PC_Delta_min_weight 1000000.00000000
learning_engine_featurewise.feature_PC_Delta_max_weight 0.00000000
unique_pcs 736
unique_pages 16278
unique_trigger_pcs 369
total_bitmaps_seen 0
unique_bitmaps_seen 0

scooby_bw_epochs 147720
scooby_bw_level_0 116553
scooby_bw_level_1 29651
scooby_bw_level_2 1446
scooby_bw_level_3 70

scooby_ipc_epochs 0
scooby_ipc_level_0 0
scooby_ipc_level_1 0
scooby_ipc_level_2 0
scooby_ipc_level_3 0

scooby_cache_acc_epochs 32159
scooby_cache_acc_level_0 3083
scooby_cache_acc_level_1 2878
scooby_cache_acc_level_2 4435
scooby_cache_acc_level_3 5749
scooby_cache_acc_level_4 5162
scooby_cache_acc_level_5 3897
scooby_cache_acc_level_6 2566
scooby_cache_acc_level_7 1519
scooby_cache_acc_level_8 909
scooby_cache_acc_level_9 1961

Channel_0_RQ_row_buffer_hit 53814
Channel_0_RQ_row_buffer_miss 203286
Channel_0_WQ_row_buffer_hit 13737
Channel_0_WQ_row_buffer_miss 50164
Channel_0_WQ_full 0
Channel_0_dbus_congested 119681

avg_congested_cycle 8

DRAM_bw_pochs 147720
DRAM_bw_level_0 116553
DRAM_bw_level_1 29651
DRAM_bw_level_2 1446
DRAM_bw_level_3 70
