Original cmd-> /cluster/home/vlnitu/CA-Lab4-24-vlnitu/Pythia/bin/perceptron-no-multi-no-ship-1core --warmup_instructions=1000000 --simulation_instructions=10000000 --l2c_prefetcher_types=scooby --config=/cluster/home/vlnitu/CA-Lab4-24-vlnitu/Pythia/config/pythia.ini --mail-type=BEGIN,END  -traces /cluster/home/vlnitu/CA-Lab4-24-vlnitu/Pythia/traces/473.astar-359B.champsimtrace.xz
*************************************************
   ChampSim Multicore Out-of-Order Simulator
   Last compiled: Nov 19 2024 20:10:11
*************************************************
parsing config file: /cluster/home/vlnitu/CA-Lab4-24-vlnitu/Pythia/config/pythia.ini
unable to parse section: , name: mail-type, value: BEGIN,END

trace_0 /cluster/home/vlnitu/CA-Lab4-24-vlnitu/Pythia/traces/473.astar-359B.champsimtrace.xz
adding L2C_PREFETCHER: Scooby
Initialize SHIP state
warmup_instructions 1000000
simulation_instructions 10000000
champsim_seed 227
measure_ipc 0
measure_ipc_epoch 1000
measure_dram_bw 1
measure_dram_bw_epoch 256
measure_cache_acc 1
measure_cache_acc_epoch 1024
l1d_perfect 0
l2c_perfect 0
llc_perfect 0
l1d_semi_perfect 0
l2c_semi_perfect 0
llc_semi_perfect 0
semi_perfect_cache_page_buffer_size 64

num_cpus 1
cpu_freq 4000
dram_io_freq 2400
page_size 4096
block_size 64
max_read_per_cycle 8
max_fill_per_cycle 1
dram_channels 1
log2_dram_channels 0
dram_ranks 1
dram_banks 8
dram_rows 65536
dram_columns 128
dram_row_size 8
dram_size 4096
dram_pages 1048576

fetch_width 6
decode_width 6
exec_width 4
lq_width 2
sq_width 2
retire_width 4
scheduler_size 128
branch_mispredict_penalty 20
rob_size 256
lq_size 72
sq_size 56
num_instr_destinations_sparc 4
num_instr_destinations 2
num_instr_sources 4

itlb_set 16
itlb_way 8
itlb_rq_size 16
itlb_wq_size 16
itlb_pq_size 0
itlb_mshr_size 8
itlb_latency 1

dtlb_set 16
dtlb_way 4
dtlb_rq_size 16
dtlb_wq_size 16
dtlb_pq_size 0
dtlb_mshr_size 8
dtlb_latency 1

stlb_set 128
stlb_way 12
stlb_rq_size 32
stlb_wq_size 32
stlb_pq_size 0
stlb_mshr_size 16
stlb_latency 8

l1i_size 32
l1i_set 64
l1i_way 8
l1i_rq_size 64
l1i_wq_size 64
l1i_pq_size 8
l1i_mshr_size 8
l1i_latency 1

l1d_size 32
l1d_set 64
l1d_way 8
l1d_rq_size 64
l1d_wq_size 64
l1d_pq_size 8
l1d_mshr_size 16
l1d_latency 4

l2c_size 256
l2c_set 512
l2c_way 8
l2c_rq_size 32
l2c_wq_size 32
l2c_pq_size 32
l2c_mshr_size 32
l2c_latency 10

llc_size 2048
llc_set 2048
llc_way 16
llc_rq_size 32
llc_wq_size 32
llc_pq_size 32
llc_mshr_size 64
llc_latency 20

dram_channel_width 8
dram_wq_size 64
dram_rq_size 64
tRP 15
tRCD 15
tCAS 12.5
dram_dbus_turn_around_time 30
dram_write_high_wm 56
dram_write_low_wm 48
min_dram_writes_per_switch 16
dram_mtps 2400
dram_dbus_return_time 13

scooby_alpha 0.0065088
scooby_gamma 0.556301
scooby_epsilon 0.00182284
scooby_state_num_bits 10
scooby_max_states 1024
scooby_seed 200
scooby_policy EGreedy
scooby_learning_type SARSA
scooby_actions 1,3,4,5,10,11,12,22,23,30,32,-1,-3,-6,0,
scooby_max_actions 15
scooby_pt_size 256
scooby_st_size 64
scooby_max_pcs 5
scooby_max_offsets 5
scooby_max_deltas 5
scooby_reward_none -4
scooby_reward_incorrect -8
scooby_reward_correct_untimely 12
scooby_reward_correct_timely 20
scooby_brain_zero_init 0
scooby_enable_reward_all 0
scooby_enable_track_multiple 0
scooby_enable_reward_out_of_bounds 1
scooby_reward_out_of_bounds -12
scooby_state_type 1
scooby_state_hash_type 11
scooby_access_debug 0
scooby_print_access_debug 0
scooby_print_access_debug_pc deadbeef
scooby_print_access_debug_pc_count 0
scooby_print_trace 0
scooby_enable_state_action_stats 1
scooby_enable_reward_tracker_hit 0
scooby_reward_tracker_hit -2
scooby_enable_featurewise_engine 1
scooby_pref_degree 1
scooby_enable_dyn_degree 1
scooby_max_to_avg_q_thresholds 0.5,1,2,
scooby_dyn_degrees 1,2,4,4,
scooby_multi_deg_select_type 2
scooby_last_pref_offset_conf_thresholds 1,3,8,
scooby_dyn_degrees_type2 1,2,4,6,
scooby_action_tracker_size 2
scooby_high_bw_thresh 4
scooby_enable_hbw_reward 1
scooby_reward_hbw_correct_timely 20
scooby_reward_hbw_correct_untimely 12
scooby_reward_hbw_incorrect -14
scooby_reward_hbw_none -2
scooby_reward_hbw_out_of_bounds -12
scooby_reward_hbw_tracker_hit -2
scooby_last_pref_offset_conf_thresholds_hbw 1,3,8,
scooby_dyn_degrees_type2_hbw 1,2,4,6,

le_enable_trace 0
le_trace_interval 0
le_trace_file_name 
le_trace_state 0
le_enable_score_plot 0
le_plot_file_name 
le_plot_actions 
le_enable_action_trace 0
le_action_trace_interval 0
le_action_trace_name 
le_enable_action_plot 0

le_featurewise_active_features PC, PC_Delta
le_featurewise_num_tilings 3,3,
le_featurewise_num_tiles 128,128,
le_featurewise_hash_types 2,2,
le_featurewise_enable_tiling_offset 1,1,
le_featurewise_max_q_thresh 0.5
le_featurewise_enable_action_fallback 1
le_featurewise_feature_weights 1,1,
le_featurewise_enable_dynamic_weight 0
le_featurewise_weight_gradient 0.001
le_featurewise_disable_adjust_weight_all_features_align 1
le_featurewise_selective_update 0
le_featurewise_pooling_type 2
le_featurewise_enable_dyn_action_fallback 1
le_featurewise_bw_acc_check_level 1
le_featurewise_acc_thresh 2
le_featurewise_enable_trace 0
le_featurewise_trace_feature_type 0
le_featurewise_trace_feature 
le_featurewise_trace_interval 0
le_featurewise_trace_record_count 0
le_featurewise_trace_file_name 
le_featurewise_enable_score_plot 0
le_featurewise_plot_actions 
le_featurewise_plot_file_name 


Heartbeat CPU  0 instructions:    1000001 cycles:    1053475 heartbeat IPC: 0.94924 cumulative IPC: 0.94924 (Simulation time: 0 hr 0 min 1 sec) 

Warmup complete CPU  0 instructions:    1000001 cycles:    1053475 (Simulation time: 0 hr 0 min 1 sec) 

Heartbeat CPU  0 instructions:    2000000 cycles:    7880568 heartbeat IPC: 0.14648 cumulative IPC: 0.14648 (Simulation time: 0 hr 0 min 3 sec) 
Heartbeat CPU  0 instructions:    3000001 cycles:   16471825 heartbeat IPC: 0.11640 cumulative IPC: 0.12972 (Simulation time: 0 hr 0 min 7 sec) 
Heartbeat CPU  0 instructions:    4000000 cycles:   23059342 heartbeat IPC: 0.15180 cumulative IPC: 0.13633 (Simulation time: 0 hr 0 min 9 sec) 
Heartbeat CPU  0 instructions:    5000000 cycles:   29979376 heartbeat IPC: 0.14451 cumulative IPC: 0.13828 (Simulation time: 0 hr 0 min 11 sec) 
Heartbeat CPU  0 instructions:    6000002 cycles:   38345588 heartbeat IPC: 0.11953 cumulative IPC: 0.13408 (Simulation time: 0 hr 0 min 14 sec) 
Heartbeat CPU  0 instructions:    7000002 cycles:   45328022 heartbeat IPC: 0.14322 cumulative IPC: 0.13552 (Simulation time: 0 hr 0 min 16 sec) 
Heartbeat CPU  0 instructions:    8000000 cycles:   52547242 heartbeat IPC: 0.13852 cumulative IPC: 0.13594 (Simulation time: 0 hr 0 min 19 sec) 
Heartbeat CPU  0 instructions:    9000002 cycles:   59980164 heartbeat IPC: 0.13454 cumulative IPC: 0.13576 (Simulation time: 0 hr 0 min 21 sec) 
Heartbeat CPU  0 instructions:   10000001 cycles:   68048328 heartbeat IPC: 0.12394 cumulative IPC: 0.13434 (Simulation time: 0 hr 0 min 23 sec) 
Heartbeat CPU  0 instructions:   11000002 cycles:   75504196 heartbeat IPC: 0.13412 cumulative IPC: 0.13432 (Simulation time: 0 hr 0 min 26 sec) 
Finished CPU 0 instructions: 10000001 cycles: 74450721 cumulative IPC: 0.13432 (Simulation time: 0 hr 0 min 26 sec) 

ChampSim completed all CPUs

[ROI Statistics]
Core_0_instructions 10000001
Core_0_cycles 74450721
Core_0_IPC 0.13432

Core_0_branch_prediction_accuracy 88.38039
Core_0_branch_MPKI 13.86810
Core_0_average_ROB_occupancy_at_mispredict 60.55857

Core_0_L1D_total_access 3941246
Core_0_L1D_total_hit 3399945
Core_0_L1D_total_miss 541301
Core_0_L1D_loads 2669534
Core_0_L1D_load_hit 2337795
Core_0_L1D_load_miss 331739
Core_0_L1D_RFOs 1271712
Core_0_L1D_RFO_hit 1062150
Core_0_L1D_RFO_miss 209562
Core_0_L1D_prefetches 0
Core_0_L1D_prefetch_hit 0
Core_0_L1D_prefetch_miss 0
Core_0_L1D_writebacks 0
Core_0_L1D_writeback_hit 0
Core_0_L1D_writeback_miss 0
Core_0_L1D_prefetch_requested 0
Core_0_L1D_prefetch_dropped 0
Core_0_L1D_prefetch_issued 0
Core_0_L1D_prefetch_filled 0
Core_0_L1D_prefetch_useful 0
Core_0_L1D_prefetch_useless 0
Core_0_L1D_prefetch_late 0
Core_0_L1D_average_miss_latency 350.63992

Core_0_L1D_rq_access 4194024
Core_0_L1D_rq_forward 0
Core_0_L1D_rq_merged 1508177
Core_0_L1D_rq_to_cache 2685847
Core_0_L1D_rq_full 0

Core_0_L1D_wq_access 1271735
Core_0_L1D_wq_forward 0
Core_0_L1D_wq_merged 1
Core_0_L1D_wq_to_cache 1271734
Core_0_L1D_wq_full 0

Core_0_L1D_pq_access 0
Core_0_L1D_pq_forward 0
Core_0_L1D_pq_merged 0
Core_0_L1D_pq_to_cache 0
Core_0_L1D_pq_full 0

Core_0_L1D_acc_epochs 56148
Core_0_L1D_acc_level_0 56148
Core_0_L1D_acc_level_1 0
Core_0_L1D_acc_level_2 0
Core_0_L1D_acc_level_3 0
Core_0_L1D_acc_level_4 0
Core_0_L1D_acc_level_5 0
Core_0_L1D_acc_level_6 0
Core_0_L1D_acc_level_7 0
Core_0_L1D_acc_level_8 0
Core_0_L1D_acc_level_9 0

Core_0_L1I_total_access 1957641
Core_0_L1I_total_hit 1957585
Core_0_L1I_total_miss 56
Core_0_L1I_loads 1957641
Core_0_L1I_load_hit 1957585
Core_0_L1I_load_miss 56
Core_0_L1I_RFOs 0
Core_0_L1I_RFO_hit 0
Core_0_L1I_RFO_miss 0
Core_0_L1I_prefetches 0
Core_0_L1I_prefetch_hit 0
Core_0_L1I_prefetch_miss 0
Core_0_L1I_writebacks 0
Core_0_L1I_writeback_hit 0
Core_0_L1I_writeback_miss 0
Core_0_L1I_prefetch_requested 0
Core_0_L1I_prefetch_dropped 0
Core_0_L1I_prefetch_issued 0
Core_0_L1I_prefetch_filled 0
Core_0_L1I_prefetch_useful 0
Core_0_L1I_prefetch_useless 0
Core_0_L1I_prefetch_late 0
Core_0_L1I_average_miss_latency 173.48214

Core_0_L1I_rq_access 10000007
Core_0_L1I_rq_forward 0
Core_0_L1I_rq_merged 8042341
Core_0_L1I_rq_to_cache 1957666
Core_0_L1I_rq_full 0

Core_0_L1I_wq_access 0
Core_0_L1I_wq_forward 0
Core_0_L1I_wq_merged 0
Core_0_L1I_wq_to_cache 0
Core_0_L1I_wq_full 0

Core_0_L1I_pq_access 0
Core_0_L1I_pq_forward 0
Core_0_L1I_pq_merged 0
Core_0_L1I_pq_to_cache 0
Core_0_L1I_pq_full 0

Core_0_L1I_acc_epochs 56148
Core_0_L1I_acc_level_0 56148
Core_0_L1I_acc_level_1 0
Core_0_L1I_acc_level_2 0
Core_0_L1I_acc_level_3 0
Core_0_L1I_acc_level_4 0
Core_0_L1I_acc_level_5 0
Core_0_L1I_acc_level_6 0
Core_0_L1I_acc_level_7 0
Core_0_L1I_acc_level_8 0
Core_0_L1I_acc_level_9 0

Core_0_L2C_total_access 1227671
Core_0_L2C_total_hit 695140
Core_0_L2C_total_miss 532531
Core_0_L2C_loads 331794
Core_0_L2C_load_hit 185416
Core_0_L2C_load_miss 146378
Core_0_L2C_RFOs 209562
Core_0_L2C_RFO_hit 8139
Core_0_L2C_RFO_miss 201423
Core_0_L2C_prefetches 399710
Core_0_L2C_prefetch_hit 215112
Core_0_L2C_prefetch_miss 184598
Core_0_L2C_writebacks 286605
Core_0_L2C_writeback_hit 286473
Core_0_L2C_writeback_miss 132
Core_0_L2C_prefetch_requested 485257
Core_0_L2C_prefetch_dropped 0
Core_0_L2C_prefetch_issued 485257
Core_0_L2C_prefetch_filled 206912
Core_0_L2C_prefetch_useful 70613
Core_0_L2C_prefetch_useless 134732
Core_0_L2C_prefetch_late 2087
Core_0_L2C_average_miss_latency 396.83316

Core_0_L2C_rq_access 541357
Core_0_L2C_rq_forward 0
Core_0_L2C_rq_merged 0
Core_0_L2C_rq_to_cache 541356
Core_0_L2C_rq_full 0

Core_0_L2C_wq_access 286605
Core_0_L2C_wq_forward 1
Core_0_L2C_wq_merged 0
Core_0_L2C_wq_to_cache 286605
Core_0_L2C_wq_full 0

Core_0_L2C_pq_access 485257
Core_0_L2C_pq_forward 0
Core_0_L2C_pq_merged 28988
Core_0_L2C_pq_to_cache 456269
Core_0_L2C_pq_full 0

Core_0_L2C_acc_epochs 56148
Core_0_L2C_acc_level_0 9294
Core_0_L2C_acc_level_1 12551
Core_0_L2C_acc_level_2 12446
Core_0_L2C_acc_level_3 9772
Core_0_L2C_acc_level_4 4927
Core_0_L2C_acc_level_5 2471
Core_0_L2C_acc_level_6 1294
Core_0_L2C_acc_level_7 583
Core_0_L2C_acc_level_8 406
Core_0_L2C_acc_level_9 2404

Core_0_LLC_total_access 810757
Core_0_LLC_total_hit 121580
Core_0_LLC_total_miss 689177
Core_0_LLC_loads 144453
Core_0_LLC_load_hit 13592
Core_0_LLC_load_miss 130861
Core_0_LLC_RFOs 201423
Core_0_LLC_RFO_hit 19706
Core_0_LLC_RFO_miss 181717
Core_0_LLC_prefetches 186523
Core_0_LLC_prefetch_hit 22522
Core_0_LLC_prefetch_miss 164001
Core_0_LLC_writebacks 278358
Core_0_LLC_writeback_hit 65760
Core_0_LLC_writeback_miss 212598
Core_0_LLC_prefetch_requested 0
Core_0_LLC_prefetch_dropped 0
Core_0_LLC_prefetch_issued 0
Core_0_LLC_prefetch_filled 183753
Core_0_LLC_prefetch_useful 3459
Core_0_LLC_prefetch_useless 173841
Core_0_LLC_prefetch_late 0
Core_0_LLC_average_miss_latency 235.11831

Core_0_LLC_rq_access 345876
Core_0_LLC_rq_forward 0
Core_0_LLC_rq_merged 0
Core_0_LLC_rq_to_cache 345876
Core_0_LLC_rq_full 0

Core_0_LLC_wq_access 278358
Core_0_LLC_wq_forward 0
Core_0_LLC_wq_merged 0
Core_0_LLC_wq_to_cache 278358
Core_0_LLC_wq_full 0

Core_0_LLC_pq_access 209000
Core_0_LLC_pq_forward 0
Core_0_LLC_pq_merged 0
Core_0_LLC_pq_to_cache 209000
Core_0_LLC_pq_full 0

Core_0_LLC_acc_epochs 73735
Core_0_LLC_acc_level_0 69637
Core_0_LLC_acc_level_1 2265
Core_0_LLC_acc_level_2 1217
Core_0_LLC_acc_level_3 182
Core_0_LLC_acc_level_4 45
Core_0_LLC_acc_level_5 355
Core_0_LLC_acc_level_6 15
Core_0_LLC_acc_level_7 4
Core_0_LLC_acc_level_8 0
Core_0_LLC_acc_level_9 15

Core_0_major_page_fault 0
Core_0_minor_page_fault 29950

scooby_st_lookup 370131
scooby_st_hit 129879
scooby_st_evict 240188
scooby_st_insert 240252
scooby_st_streaming 0

scooby_predict_called 370131
scooby_predict_out_of_bounds 8842
scooby_predict_action_1 344409
scooby_predict_issue_action_1 343795
scooby_predict_hit_action_1 614
scooby_predict_out_of_bounds_action_1 5429
scooby_predict_action_3 1641
scooby_predict_issue_action_3 1450
scooby_predict_hit_action_3 191
scooby_predict_out_of_bounds_action_3 78
scooby_predict_action_4 1420
scooby_predict_issue_action_4 1338
scooby_predict_hit_action_4 82
scooby_predict_out_of_bounds_action_4 98
scooby_predict_action_5 1423
scooby_predict_issue_action_5 1372
scooby_predict_hit_action_5 51
scooby_predict_out_of_bounds_action_5 114
scooby_predict_action_10 1181
scooby_predict_issue_action_10 1173
scooby_predict_hit_action_10 8
scooby_predict_out_of_bounds_action_10 236
scooby_predict_action_11 1014
scooby_predict_issue_action_11 1003
scooby_predict_hit_action_11 11
scooby_predict_out_of_bounds_action_11 239
scooby_predict_action_12 1098
scooby_predict_issue_action_12 1087
scooby_predict_hit_action_12 11
scooby_predict_out_of_bounds_action_12 279
scooby_predict_action_22 879
scooby_predict_issue_action_22 866
scooby_predict_hit_action_22 13
scooby_predict_out_of_bounds_action_22 459
scooby_predict_action_23 856
scooby_predict_issue_action_23 841
scooby_predict_hit_action_23 15
scooby_predict_out_of_bounds_action_23 533
scooby_predict_action_30 617
scooby_predict_issue_action_30 614
scooby_predict_hit_action_30 3
scooby_predict_out_of_bounds_action_30 573
scooby_predict_action_32 622
scooby_predict_issue_action_32 599
scooby_predict_hit_action_32 23
scooby_predict_out_of_bounds_action_32 612
scooby_predict_action_-1 1777
scooby_predict_issue_action_-1 1455
scooby_predict_hit_action_-1 322
scooby_predict_out_of_bounds_action_-1 22
scooby_predict_action_-3 1326
scooby_predict_issue_action_-3 1239
scooby_predict_hit_action_-3 87
scooby_predict_out_of_bounds_action_-3 64
scooby_predict_action_-6 1191
scooby_predict_issue_action_-6 1172
scooby_predict_hit_action_-6 19
scooby_predict_out_of_bounds_action_-6 106
scooby_predict_action_0 1835
scooby_predict_issue_action_0 0
scooby_predict_hit_action_0 0
scooby_predict_out_of_bounds_action_0 0
scooby_predict_multi_deg_called 31026
scooby_predict_predicted 485257
scooby_predict_multi_deg 127253
scooby_predict_multi_deg_2 30379
scooby_predict_multi_deg_3 27244
scooby_predict_multi_deg_4 26610
scooby_predict_multi_deg_5 21830
scooby_predict_multi_deg_6 21190
scooby_predict_multi_deg_7 0
scooby_predict_multi_deg_8 0
scooby_predict_multi_deg_9 0
scooby_predict_multi_deg_10 0
scooby_predict_multi_deg_11 0
scooby_predict_multi_deg_12 0
scooby_predict_multi_deg_13 0
scooby_predict_multi_deg_14 0
scooby_predict_multi_deg_15 0
scooby_predict_multi_deg_16 0

scooby_selected_deg_1 326978
scooby_selected_deg_2 2512
scooby_selected_deg_3 0
scooby_selected_deg_4 4166
scooby_selected_deg_5 0
scooby_selected_deg_6 24348
scooby_selected_deg_7 0
scooby_selected_deg_8 0
scooby_selected_deg_9 0
scooby_selected_deg_10 0
scooby_selected_deg_11 0
scooby_selected_deg_12 0
scooby_selected_deg_13 0
scooby_selected_deg_14 0
scooby_selected_deg_15 0
scooby_selected_deg_16 0

scooby_state_406930|32|0 2701,1,2,2,4,0,5,2,2,5,4,3,4,5,3,2743,
scooby_state_406930|30|0 2686,1,1,2,6,5,3,1,3,2,4,4,0,3,4,2725,
scooby_state_406930|31|0 2584,2,3,4,1,4,2,0,4,1,1,1,2,2,5,2616,
scooby_state_406930|33|0 2511,2,3,3,3,2,2,4,2,2,1,1,3,1,2,2542,
scooby_state_406930|41|0 2415,1,1,4,0,1,3,3,0,0,2,2,1,4,0,2437,
scooby_state_406930|43|0 2398,2,2,5,2,1,1,0,1,3,2,4,2,1,4,2428,
scooby_state_406930|25|0 2375,3,2,1,4,1,4,2,3,2,3,2,1,2,4,2409,
scooby_state_406930|24|0 2376,1,2,1,2,1,1,4,1,0,2,5,4,1,6,2407,
scooby_state_406930|42|0 2370,2,3,1,2,2,4,2,0,2,4,1,0,4,2,2399,
scooby_state_406930|61|0 2348,3,4,2,1,1,0,3,2,2,2,1,3,2,5,2379,
scooby_state_406930|2|0 2340,2,3,0,1,1,2,1,2,5,6,2,1,1,3,2370,
scooby_state_406930|11|0 2322,2,5,3,4,5,0,2,2,2,2,1,4,3,4,2361,
scooby_state_406930|27|0 2335,1,2,0,1,2,1,2,1,1,2,2,4,1,5,2360,
scooby_state_406930|29|0 2311,4,3,1,5,2,2,4,2,1,1,2,4,3,8,2353,
scooby_state_406930|28|0 2308,4,4,2,1,5,2,0,3,3,5,6,1,4,4,2352,
scooby_state_406930|49|0 2310,4,2,4,2,3,0,0,4,4,3,5,4,3,2,2350,
scooby_state_406930|53|0 2316,0,1,3,1,0,0,2,2,2,4,1,1,3,4,2340,
scooby_state_406930|56|0 2302,1,2,2,5,2,2,1,3,3,3,4,2,0,4,2336,
scooby_state_406930|47|0 2307,0,1,2,2,3,1,0,4,2,1,1,3,1,3,2331,
scooby_state_406930|13|0 2267,2,2,2,1,4,5,5,2,2,4,2,3,1,4,2306,
scooby_state_406930|59|0 2281,2,4,2,2,1,2,2,1,1,2,1,0,4,1,2306,
scooby_state_406930|48|0 2265,3,3,4,4,1,1,2,2,2,2,2,2,2,6,2301,
scooby_state_406930|5|0 2275,0,1,3,4,1,1,0,2,2,2,2,2,1,5,2301,
scooby_state_406930|54|0 2266,1,1,0,2,2,4,2,2,4,5,3,0,2,6,2300,
scooby_state_406930|46|0 2278,0,2,0,1,0,4,1,1,0,3,2,2,1,2,2297,
scooby_state_406930|14|0 2255,3,0,2,3,1,2,1,1,2,4,2,3,1,3,2283,
scooby_state_406930|17|0 2235,3,2,2,2,6,7,1,4,3,5,6,3,0,3,2282,
scooby_state_406930|34|0 2254,2,2,2,3,1,2,3,0,1,1,2,1,3,4,2281,
scooby_state_406930|60|0 2241,3,1,4,0,2,3,2,1,2,6,5,4,1,1,2276,
scooby_state_406930|19|0 2253,1,3,4,0,1,1,2,0,1,1,2,2,4,0,2275,
scooby_state_406930|50|0 2242,4,2,1,2,1,4,2,2,2,4,1,1,2,3,2273,
scooby_state_406930|1|0 2229,5,1,4,3,5,0,3,3,2,3,1,4,3,4,2270,
scooby_state_406930|57|0 2229,4,1,0,1,4,2,3,3,4,2,1,4,1,2,2261,
scooby_state_406930|23|0 2234,1,0,3,1,2,0,2,2,1,3,0,1,3,3,2256,
scooby_state_406930|44|0 2233,0,3,2,3,0,0,3,1,6,0,0,1,0,3,2255,
scooby_state_406930|6|0 2214,2,4,1,6,3,4,2,2,2,3,1,4,1,6,2255,
scooby_state_406930|63|0 2229,2,1,1,2,2,1,3,1,2,3,2,2,1,2,2254,
scooby_state_406930|37|0 2222,2,0,4,1,3,2,1,1,3,1,5,2,1,1,2249,
scooby_state_406930|58|0 2205,4,1,2,2,1,4,3,2,3,5,3,4,1,3,2243,
scooby_state_406930|45|0 2213,5,2,1,0,1,2,0,1,1,5,2,4,1,4,2242,
scooby_state_406930|39|0 2214,3,4,2,1,4,1,2,3,0,0,3,1,1,2,2241,
scooby_state_406930|18|0 2210,4,1,2,5,1,2,0,2,1,1,0,2,2,3,2236,
scooby_state_406930|0|0 2200,4,1,1,2,1,0,1,5,2,4,4,2,2,1,2230,
scooby_state_406930|40|0 2201,0,2,1,2,1,1,2,3,4,2,1,0,4,1,2225,
scooby_state_406930|55|0 2196,2,0,3,2,4,2,2,3,2,0,2,1,1,3,2223,
scooby_state_406930|7|0 2184,5,3,2,2,4,1,4,1,1,4,2,0,2,4,2219,
scooby_state_406930|15|0 2191,2,2,2,1,3,2,3,1,2,3,2,0,1,2,2217,
scooby_state_406930|52|0 2186,1,2,3,3,4,1,1,3,1,3,2,1,2,2,2215,
scooby_state_406930|38|0 2181,0,3,2,1,3,3,4,2,0,2,2,2,4,3,2212,
scooby_state_406930|36|0 2167,3,3,2,2,2,2,2,3,4,5,4,4,3,4,2210,
scooby_state_406930|21|0 2166,4,4,2,3,1,4,3,4,1,2,2,6,2,1,2205,
scooby_state_406930|3|0 2169,2,2,1,1,3,2,5,4,0,1,3,3,2,3,2201,
scooby_state_406930|20|0 2168,2,3,5,3,0,3,5,3,1,0,0,1,3,4,2201,
scooby_state_406930|35|0 2163,0,5,0,0,2,2,2,3,3,4,2,4,0,3,2193,
scooby_state_406930|9|0 2160,1,1,3,2,4,0,1,0,2,1,4,1,2,5,2187,
scooby_state_406930|16|0 2154,3,2,1,3,1,1,2,2,1,2,1,0,5,2,2180,
scooby_state_406930|4|0 2139,3,1,1,1,0,4,1,3,3,1,2,0,4,7,2170,
scooby_state_406930|51|0 2142,3,1,2,3,0,3,3,3,1,0,0,3,1,3,2168,
scooby_state_406930|12|0 2131,2,1,1,1,1,3,1,0,1,2,1,1,1,1,2148,
scooby_state_406930|26|0 2108,5,2,1,2,2,2,3,1,2,4,0,3,2,2,2139,
scooby_state_406930|62|0 2104,1,2,2,2,0,0,1,1,2,4,2,1,3,4,2129,
scooby_state_406930|8|0 2096,1,3,2,0,4,3,1,3,0,4,2,2,1,1,2123,
scooby_state_406930|10|0 2086,1,1,1,2,1,2,4,1,2,2,1,2,2,4,2112,
scooby_state_406930|22|0 2059,1,5,2,6,0,1,1,5,1,3,4,1,0,0,2089,
scooby_state_406c49|0|0 1342,2,1,2,1,2,1,1,0,0,0,1,2,1,3,1359,
scooby_state_406c49|63|0 921,0,0,0,0,1,1,2,0,1,0,0,0,0,1,927,
scooby_state_406c49|1|0 910,1,0,0,1,0,1,1,0,2,0,1,2,2,1,922,
scooby_state_406c49|15|0 902,1,0,0,0,0,0,2,0,1,2,1,1,0,3,913,
scooby_state_406c49|25|0 902,0,0,0,1,0,1,0,1,0,1,1,0,1,3,911,
scooby_state_406c49|29|0 895,0,0,0,1,2,3,3,0,3,1,1,0,1,0,910,
scooby_state_406c49|40|0 893,0,2,1,0,0,3,1,0,0,0,0,1,0,1,902,
scooby_state_406c49|22|0 892,1,0,1,0,0,1,1,0,0,1,0,0,2,2,901,
scooby_state_406c49|7|0 886,0,1,3,2,0,0,0,3,0,1,1,1,1,0,899,
scooby_state_406c49|2|0 889,0,2,0,0,1,0,0,0,0,2,1,0,0,1,896,
scooby_state_406c49|31|0 886,1,2,0,1,0,0,1,0,0,0,0,1,0,2,894,
scooby_state_406c49|9|0 881,0,1,0,1,1,0,0,0,1,2,3,0,2,1,893,
scooby_state_406c49|35|0 878,1,0,0,1,2,1,0,2,1,1,2,1,0,2,892,
scooby_state_406c49|27|0 878,2,2,0,0,2,0,1,1,0,1,0,1,0,3,891,
scooby_state_406c49|61|0 879,1,0,2,0,1,0,2,0,0,0,1,2,1,2,891,
scooby_state_406c49|20|0 882,0,0,1,1,0,1,0,1,1,0,0,1,0,3,891,
scooby_state_406c49|13|0 880,1,1,3,0,1,1,1,1,0,0,0,0,0,2,891,
scooby_state_406c49|60|0 878,0,0,1,1,1,1,2,1,1,0,0,0,1,3,890,
scooby_state_406c49|32|0 879,0,2,0,1,1,0,0,0,1,1,1,1,0,3,890,
scooby_state_406c49|56|0 873,1,2,1,0,1,2,1,1,1,0,1,0,0,2,886,
scooby_state_406c49|43|0 874,0,0,1,1,0,1,0,1,1,2,1,0,2,1,885,
scooby_state_406c49|36|0 867,0,0,2,1,4,2,0,2,1,1,0,0,0,3,883,
scooby_state_406c49|4|0 871,0,2,0,0,1,1,2,1,1,0,3,0,0,0,882,
scooby_state_406c49|12|0 875,0,1,0,2,0,1,0,0,0,1,1,1,0,0,882,
scooby_state_406c49|10|0 867,1,2,0,0,0,0,3,0,0,1,1,3,1,1,880,
scooby_state_406c49|17|0 859,4,2,1,1,1,2,0,2,0,1,2,1,1,1,878,
scooby_state_406c49|19|0 864,2,3,0,2,1,1,0,0,0,1,0,1,1,2,878,
scooby_state_406c49|26|0 862,0,0,1,1,1,1,1,1,2,0,1,1,1,4,877,
scooby_state_406c49|55|0 868,0,1,0,0,0,0,0,0,0,1,1,1,0,0,872,
scooby_state_406c49|16|0 860,0,3,1,2,0,0,1,0,1,2,0,1,0,0,871,
scooby_state_406c49|24|0 860,0,0,1,2,1,1,1,0,0,0,0,1,0,3,870,
scooby_state_406c49|34|0 857,0,1,1,1,0,0,1,2,1,1,3,0,0,1,869,
scooby_state_406c49|30|0 851,2,2,1,1,1,1,1,1,1,2,0,1,1,2,868,
scooby_state_406c49|5|0 858,1,0,0,1,0,2,0,1,3,0,0,0,1,0,867,
scooby_state_406c49|14|0 851,2,0,0,1,0,3,1,1,0,1,2,1,1,1,865,
scooby_state_406c49|33|0 857,0,0,3,0,0,0,0,2,0,1,1,0,0,0,864,
scooby_state_406c49|11|0 854,1,1,0,0,0,1,0,0,1,2,2,0,1,1,864,
scooby_state_406c49|21|0 851,1,0,2,0,2,0,1,0,2,2,0,1,0,2,864,
scooby_state_406c49|18|0 856,0,1,1,0,0,1,2,1,0,0,0,0,0,1,863,
scooby_state_406c49|39|0 852,0,1,0,0,2,1,0,0,2,2,0,1,1,0,862,
scooby_state_406c49|53|0 849,0,2,2,1,0,2,0,0,1,2,1,1,1,0,862,
scooby_state_406c49|50|0 847,0,1,1,0,2,0,0,1,0,2,2,1,1,3,861,
scooby_state_406c49|49|0 851,0,0,0,0,1,3,1,1,0,2,0,0,1,1,861,
scooby_state_406c49|54|0 851,1,1,0,0,1,2,0,1,1,1,1,0,0,0,860,
scooby_state_406c49|28|0 851,0,0,1,2,1,0,0,0,0,0,0,0,3,1,859,
scooby_state_406c49|38|0 849,0,0,0,2,0,1,1,1,0,1,1,1,2,0,859,
scooby_state_406c49|45|0 843,2,1,1,1,0,2,1,0,1,1,2,0,1,2,858,
scooby_state_406c49|8|0 852,0,0,1,0,0,0,1,2,0,0,0,1,1,0,858,
scooby_state_406c49|58|0 847,0,0,1,0,1,2,1,1,0,1,0,1,1,0,856,
scooby_state_406c49|23|0 849,0,0,2,1,0,0,0,0,0,0,0,1,0,1,854,
scooby_state_406c49|46|0 845,0,1,1,0,1,1,0,1,1,0,0,1,0,1,853,
scooby_state_406c49|6|0 841,2,0,0,1,0,2,0,2,1,0,0,2,1,1,853,
scooby_state_406c49|47|0 837,0,1,1,0,1,1,2,0,1,1,1,0,1,1,848,
scooby_state_406c49|59|0 834,2,1,0,1,1,0,2,0,2,1,0,1,1,1,847,
scooby_state_406c49|62|0 839,1,1,0,1,0,0,0,0,0,1,0,0,1,3,847,
scooby_state_406c49|52|0 834,2,1,0,1,2,1,1,0,1,0,1,0,1,2,847,
scooby_state_406c49|44|0 836,0,0,1,1,3,1,2,0,0,0,0,1,0,1,846,
scooby_state_406c49|48|0 830,1,1,0,0,1,0,3,1,1,0,3,0,1,3,845,
scooby_state_406c49|37|0 835,1,0,0,0,0,0,0,0,1,1,0,2,1,0,841,
scooby_state_406c49|41|0 823,2,0,2,0,1,1,0,1,0,0,1,1,0,4,836,
scooby_state_406c49|57|0 825,0,0,0,0,2,2,0,1,0,1,1,0,0,2,834,
scooby_state_406c49|51|0 823,0,1,1,1,1,0,0,0,0,1,0,2,3,0,833,
scooby_state_406c49|42|0 799,2,1,0,1,0,0,0,1,0,2,0,0,2,0,808,
scooby_state_406c49|3|0 796,1,1,1,0,0,0,0,0,0,2,1,1,0,0,803,
scooby_state_406c1c|0|0 625,2,1,2,2,1,0,1,2,0,0,1,0,2,2,641,
scooby_state_406c1c|43|0 601,0,0,0,1,1,1,1,0,1,1,2,1,2,4,616,
scooby_state_406c1c|41|0 601,0,0,0,0,1,2,2,0,3,1,3,0,0,0,613,
scooby_state_406c1c|30|0 590,1,0,2,2,1,1,3,3,1,0,1,3,0,1,609,
scooby_state_406c1c|33|0 582,1,2,0,2,3,0,1,0,0,0,3,1,1,1,597,
scooby_state_406c1c|59|0 570,2,0,1,0,1,0,1,3,0,0,3,3,1,3,588,
scooby_state_406c1c|47|0 569,1,0,2,0,0,4,1,1,0,0,1,1,1,3,584,
scooby_state_406c1c|57|0 569,0,1,0,0,3,2,2,1,0,0,3,1,0,0,582,
scooby_state_406c1c|2|0 566,1,2,2,0,1,0,2,0,1,1,2,0,1,2,581,
scooby_state_406c1c|32|0 562,2,2,0,0,0,1,1,0,0,1,4,1,2,3,579,
scooby_state_406c1c|14|0 563,0,2,0,3,2,1,1,0,1,2,4,0,0,0,579,
scooby_state_406c1c|1|0 562,1,0,2,1,1,0,3,1,0,0,3,2,0,0,576,
scooby_state_406c1c|42|0 558,2,1,1,1,0,1,0,1,0,0,2,0,2,1,570,
scooby_state_406c1c|53|0 557,0,0,0,2,1,0,3,0,1,0,1,3,0,0,568,
scooby_state_406c1c|46|0 552,4,2,0,0,0,0,0,0,1,1,1,1,1,2,565,
scooby_state_406c1c|56|0 542,3,2,0,1,2,2,1,0,3,0,2,1,0,3,562,
scooby_state_406c1c|28|0 541,0,1,1,0,3,2,2,0,2,1,3,1,1,0,558,
scooby_state_406c1c|34|0 545,1,0,2,1,0,2,0,0,1,0,2,1,0,2,557,
scooby_state_406c49|42|1 543,5,2,0,0,1,0,1,0,2,0,1,0,0,2,557,
scooby_state_406c1c|21|0 539,0,2,0,1,1,0,1,1,1,0,6,1,3,1,557,
scooby_state_406c1c|45|0 541,1,0,1,1,2,2,0,1,0,1,3,1,0,2,556,
scooby_state_406c1c|12|0 543,0,0,0,1,2,1,1,2,0,0,1,0,0,5,556,
scooby_state_406c1c|13|0 537,3,2,1,0,1,2,0,0,1,1,0,2,5,0,555,
scooby_state_406c1c|52|0 539,0,0,0,0,2,1,0,1,3,0,4,2,1,1,554,
scooby_state_406c1c|63|0 538,2,0,1,3,1,0,1,3,1,1,2,1,0,0,554,
scooby_state_406c1c|24|0 527,1,0,2,0,2,0,1,1,2,0,2,2,0,1,541,
scooby_state_406c1c|48|0 530,0,0,0,1,0,1,1,2,1,0,2,0,1,1,540,
scooby_state_406c1c|36|0 524,0,1,2,0,2,0,2,1,2,1,0,0,2,1,538,
scooby_state_406c1c|25|0 521,3,1,3,0,1,1,1,0,1,1,2,2,0,1,538,
scooby_state_406c49|28|1 520,2,1,2,1,2,0,1,1,1,1,0,2,0,3,537,
scooby_state_406c1c|18|0 524,2,0,1,0,0,3,0,1,3,1,0,0,0,2,537,
scooby_state_406c1c|20|0 519,0,1,2,2,3,2,1,2,0,0,3,0,0,1,536,
scooby_state_406c1c|17|0 514,2,2,2,1,1,1,0,2,1,0,3,0,3,3,535,
scooby_state_406c1c|11|0 514,1,3,0,1,1,2,2,1,1,1,3,2,1,2,535,
scooby_state_406c1c|31|0 515,3,1,1,0,1,1,2,0,3,0,1,0,2,3,533,
scooby_state_406c1c|44|0 518,0,0,0,1,0,1,1,3,0,1,3,1,3,1,533,
scooby_state_406c1c|40|0 522,0,0,0,1,1,1,0,1,2,1,1,1,1,0,532,
scooby_state_406c1c|51|0 515,0,3,1,0,1,1,2,1,0,2,2,2,2,0,532,
scooby_state_406c1c|50|0 514,2,0,1,0,2,3,1,1,1,0,4,1,0,1,531,
scooby_state_406c1c|5|0 517,0,2,1,0,1,0,1,2,1,0,0,0,3,3,531,
scooby_state_406c49|57|1 513,1,0,1,0,1,2,0,2,3,1,1,3,1,1,530,
scooby_state_406c1c|8|0 515,2,0,1,2,1,1,1,0,1,0,3,1,1,1,530,
scooby_state_406c1c|23|0 513,0,0,1,2,0,1,2,0,1,0,3,3,1,1,528,
scooby_state_406c1c|6|0 508,0,1,0,1,0,0,1,2,3,2,4,0,1,3,526,
scooby_state_406c1c|54|0 512,0,1,0,0,3,1,0,1,1,2,0,1,2,1,525,
scooby_state_406c1c|39|0 507,1,1,1,2,3,1,0,1,2,1,3,1,1,0,525,
scooby_state_406c1c|3|0 503,1,0,2,0,2,2,3,0,1,2,2,4,0,1,523,
scooby_state_406c1c|7|0 504,2,2,3,2,2,1,1,0,1,2,1,1,1,0,523,
scooby_state_406c1c|10|0 506,1,2,0,1,2,0,1,3,0,0,3,0,0,3,522,
scooby_state_406c1c|15|0 511,0,1,0,2,0,1,0,2,0,1,2,1,1,0,522,
scooby_state_406c49|41|1 516,0,2,0,0,0,0,0,0,0,2,1,0,0,0,521,
scooby_state_406c1c|60|0 502,2,2,0,3,0,1,0,2,1,2,4,0,0,1,520,
scooby_state_406c1c|55|0 515,0,1,0,0,0,0,0,1,1,0,1,0,1,0,520,
scooby_state_406c1c|29|0 505,0,2,1,0,2,0,0,1,1,0,4,0,1,2,519,
scooby_state_406c1c|27|0 508,1,0,4,2,1,0,0,0,0,1,1,1,0,0,519,
scooby_state_406c1c|38|0 499,3,0,2,2,1,2,1,1,0,1,5,0,0,1,518,
scooby_state_406c1c|19|0 499,2,1,2,1,0,1,2,1,2,1,3,1,0,2,518,
scooby_state_406c1c|58|0 498,2,1,1,2,1,0,0,1,4,1,2,1,0,2,516,
scooby_state_406c1c|49|0 495,3,0,2,1,1,0,1,2,1,0,3,1,3,2,515,
scooby_state_406c1c|16|0 500,1,2,1,2,1,1,1,1,1,3,1,0,0,0,515,
scooby_state_406c49|9|1 499,1,1,3,1,2,0,0,2,0,1,3,0,0,1,514,
scooby_state_406c49|14|1 499,1,3,2,0,1,1,0,1,3,1,0,1,1,0,514,
scooby_state_406c1c|61|0 499,1,2,0,1,1,1,0,1,1,0,2,2,1,1,513,
scooby_state_406c49|62|1 501,0,1,0,0,2,1,2,0,1,1,2,1,0,0,512,
scooby_state_406c1c|26|0 494,1,2,1,1,0,0,0,1,3,0,0,1,3,1,508,
scooby_state_406c49|31|1 491,3,0,1,1,0,3,0,2,1,1,1,1,2,1,508,
scooby_state_406c1c|4|0 491,1,4,2,0,1,0,1,1,0,0,2,1,0,2,506,
scooby_state_406c1c|35|0 491,1,0,1,1,0,2,0,1,0,1,4,1,0,1,504,
scooby_state_406c49|48|1 495,2,0,0,0,0,1,1,0,2,0,1,2,0,0,504,
scooby_state_406c49|30|1 489,1,1,2,1,2,2,1,0,0,0,1,1,2,1,504,
scooby_state_406c49|50|1 492,0,0,0,0,1,0,2,1,1,1,1,1,0,3,503,
scooby_state_406c49|3|1 490,1,3,1,1,2,1,2,0,0,0,0,0,0,1,502,
scooby_state_406c49|15|1 487,1,0,1,1,3,0,1,0,1,0,1,0,5,0,501,
scooby_state_406c49|38|1 493,1,1,0,0,0,0,0,0,0,3,1,0,1,0,500,
scooby_state_406c1c|62|0 494,1,1,0,1,0,1,0,0,0,0,1,0,1,0,500,
scooby_state_406c49|59|1 490,1,1,2,1,0,1,0,1,0,1,0,0,0,2,500,
scooby_state_406c1c|37|0 484,1,2,1,1,0,0,1,0,0,0,3,2,0,4,499,
scooby_state_406c49|18|1 482,1,2,0,0,1,1,3,1,1,2,0,1,1,3,499,
scooby_state_406c49|46|1 491,0,1,1,2,0,1,0,1,0,0,0,0,1,1,499,
scooby_state_406c1c|9|0 482,0,1,0,1,1,2,2,1,2,1,3,1,0,2,499,
scooby_state_406c49|10|1 490,0,0,1,2,0,0,0,0,1,0,1,0,0,4,499,
scooby_state_406c49|8|1 485,0,0,2,2,0,1,1,3,1,0,2,0,0,1,498,
scooby_state_406c49|56|1 485,0,2,1,1,0,0,0,2,1,1,1,1,1,1,497,
scooby_state_406c49|26|1 490,0,1,0,1,0,1,0,0,2,0,1,1,0,0,497,
scooby_state_406c49|21|1 484,2,1,1,0,0,2,2,2,0,2,0,0,0,1,497,
scooby_state_406c49|52|1 485,0,1,2,0,2,2,0,0,0,2,1,0,0,1,496,
scooby_state_406c49|12|1 484,0,1,2,1,0,0,1,0,0,0,3,2,0,2,496,
scooby_state_406c49|17|1 487,0,2,2,1,0,1,1,0,1,1,0,0,0,0,496,
scooby_state_406c49|29|1 491,0,0,0,2,1,0,0,0,0,0,1,1,0,0,496,
scooby_state_406c49|2|1 485,0,0,0,1,3,0,2,0,1,0,1,0,1,1,495,
scooby_state_406c49|47|1 483,2,1,0,0,0,0,0,2,0,1,0,1,1,1,492,
scooby_state_406c49|61|1 481,0,0,1,1,1,0,2,0,1,0,3,0,1,1,492,
scooby_state_406c49|43|1 477,1,1,0,0,1,0,2,4,0,0,1,0,1,2,490,
scooby_state_406c49|22|1 480,0,0,1,0,1,1,1,0,1,1,1,2,0,1,490,
scooby_state_406c49|6|1 481,1,0,1,1,0,1,0,2,0,0,1,0,0,2,490,
scooby_state_406c49|51|1 475,1,0,0,0,1,0,1,1,1,0,1,0,2,4,487,
scooby_state_406c49|20|1 470,1,2,0,2,0,1,1,0,0,1,1,2,0,4,485,
scooby_state_406c49|25|1 467,2,1,1,2,2,2,0,0,3,1,1,1,0,1,484,
scooby_state_406c49|1|1 471,2,3,0,0,1,0,1,2,0,1,0,1,0,1,483,
scooby_state_406c49|35|1 467,1,0,0,0,1,0,3,3,0,1,0,2,1,1,480,
scooby_state_406c49|32|1 469,0,1,1,1,0,0,3,1,0,1,0,0,3,0,480,
scooby_state_406c49|36|1 469,1,0,0,0,1,0,1,3,1,0,1,0,1,1,479,
scooby_state_406c49|55|1 461,2,1,2,1,3,0,0,1,1,4,0,1,0,1,478,
scooby_state_406c49|13|1 467,0,1,1,2,0,0,0,0,0,2,0,0,0,3,476,
scooby_state_406c49|7|1 467,1,0,0,0,0,0,0,1,2,1,1,0,1,2,476,
scooby_state_406c49|39|1 457,0,1,0,2,3,0,1,1,1,1,1,1,3,2,474,
scooby_state_406c49|44|1 459,1,0,0,1,0,0,1,1,1,2,2,1,1,3,473,
scooby_state_406c49|37|1 459,0,0,2,2,0,2,0,0,1,0,2,2,2,0,472,
scooby_state_406c1c|22|0 461,1,1,0,1,4,0,1,0,1,0,0,0,1,1,472,
scooby_state_406c49|23|1 462,2,0,0,1,0,0,1,1,1,0,2,0,0,0,470,
scooby_state_406c49|40|1 458,1,0,0,0,4,1,0,0,0,0,3,0,0,1,468,
scooby_state_406c49|24|1 461,0,0,1,0,1,1,0,1,0,0,1,2,0,0,468,
scooby_state_406c49|16|1 454,1,0,2,1,0,1,1,0,1,0,0,2,0,2,465,
scooby_state_406c49|33|1 450,2,0,0,0,0,0,1,0,3,1,0,1,1,3,462,
scooby_state_406c49|11|1 450,0,0,0,0,0,0,1,2,1,1,2,3,0,2,462,
scooby_state_406c49|19|1 451,0,1,0,1,1,1,1,1,1,0,0,1,0,2,461,
scooby_state_406c49|54|1 449,0,0,3,1,0,1,0,0,0,1,1,0,1,2,459,
scooby_state_406c49|27|1 449,0,0,0,2,1,1,0,1,1,0,0,0,2,1,458,
scooby_state_406930|45|34 428,5,1,2,1,2,3,1,0,3,1,1,2,3,5,458,
scooby_state_406c49|63|1 447,1,4,0,0,0,0,2,0,0,2,0,0,0,1,457,
scooby_state_406c49|60|1 442,3,2,0,1,2,2,1,0,1,0,0,0,1,2,457,
scooby_state_406930|38|34 443,1,1,1,0,1,2,2,1,1,0,1,0,0,2,456,
scooby_state_406c49|5|1 443,2,1,0,0,0,3,2,2,0,0,1,0,1,1,456,
scooby_state_406930|54|34 433,1,5,0,0,1,1,2,2,1,1,3,1,2,2,455,
scooby_state_406930|46|34 442,1,1,1,0,1,1,1,2,1,0,0,1,1,2,455,
scooby_state_406c49|34|1 437,0,0,3,1,2,0,0,0,2,0,0,0,2,1,448,
scooby_state_406c49|53|1 436,0,1,1,1,0,2,1,0,0,1,1,1,1,1,447,
scooby_state_406930|52|34 427,1,2,1,2,0,3,1,1,1,2,0,0,1,1,443,
scooby_state_406c49|45|1 426,1,2,0,1,0,1,0,1,1,1,2,1,2,0,439,
scooby_state_406c49|49|1 429,0,2,0,0,1,0,1,2,3,0,0,1,0,0,439,
scooby_state_406930|61|34 425,3,0,1,1,1,0,2,1,0,4,1,0,0,0,439,
scooby_state_406930|62|34 417,0,1,0,1,3,2,0,5,0,0,3,2,0,0,434,
scooby_state_406930|39|34 411,2,0,1,1,0,2,1,2,2,0,1,2,4,3,432,
scooby_state_406930|37|34 406,1,1,0,2,2,5,1,1,1,1,2,1,2,4,430,
scooby_state_406c49|4|1 421,0,1,1,1,1,0,1,1,0,0,1,0,0,2,430,
scooby_state_406930|59|34 407,0,1,1,4,1,3,4,2,1,1,2,0,0,3,430,
scooby_state_406930|48|34 414,1,2,1,0,1,1,1,2,2,0,1,2,1,0,429,
scooby_state_406930|34|34 411,1,1,2,1,2,1,1,2,2,0,1,1,2,0,428,
scooby_state_406930|50|34 409,0,0,1,2,2,0,0,1,1,1,4,3,0,3,427,
scooby_state_406930|51|34 415,1,0,1,0,0,1,1,1,0,0,0,1,2,1,424,
scooby_state_406930|24|-34 397,3,0,0,0,1,3,4,3,0,4,1,4,3,1,424,
scooby_state_406c49|58|1 417,0,0,1,0,1,1,2,0,1,0,0,0,0,0,423,
scooby_state_406930|53|34 406,2,1,0,1,1,3,0,0,0,1,2,1,1,2,421,
scooby_state_406930|58|34 395,1,2,3,1,1,1,0,1,1,1,1,3,2,3,416,
scooby_state_406930|40|34 394,1,1,1,2,1,2,0,1,2,1,1,2,1,2,412,
scooby_state_406930|49|34 390,1,1,0,1,3,2,0,2,1,1,4,1,0,3,410,
scooby_state_406930|55|34 389,1,1,1,1,2,0,2,2,1,1,0,2,0,6,409,
scooby_state_406930|57|34 388,1,1,3,3,1,0,0,1,1,2,0,4,2,1,408,
scooby_state_406930|43|34 383,2,4,3,1,1,1,0,2,1,0,2,0,2,0,402,
scooby_state_406930|36|34 381,1,1,3,3,0,3,1,0,1,1,0,1,2,0,398,
scooby_state_40238a|53|1 391,0,0,0,0,0,0,0,0,1,0,0,0,0,1,393,
scooby_state_40238a|41|1 391,0,0,0,0,0,1,0,0,0,0,0,0,0,1,393,
scooby_state_40238a|50|1 391,0,0,0,0,1,0,0,0,1,0,0,0,0,0,393,
scooby_state_40238a|36|1 393,0,0,0,0,0,0,0,0,0,0,0,0,0,0,393,
scooby_state_40238a|3|1 393,0,0,0,0,0,0,0,0,0,0,0,0,0,0,393,
scooby_state_40238a|52|1 391,0,0,0,0,1,0,0,0,0,0,1,0,0,0,393,
scooby_state_40238a|44|1 392,0,1,0,0,0,0,0,0,0,0,0,0,0,0,393,
scooby_state_40238a|30|1 393,0,0,0,0,0,0,0,0,0,0,0,0,0,0,393,
scooby_state_40238a|54|1 393,0,0,0,0,0,0,0,0,0,0,0,0,0,0,393,
scooby_state_40238a|8|1 393,0,0,0,0,0,0,0,0,0,0,0,0,0,0,393,
scooby_state_40238a|56|1 393,0,0,0,0,0,0,0,0,0,0,0,0,0,0,393,
scooby_state_40238a|57|1 393,0,0,0,0,0,0,0,0,0,0,0,0,0,0,393,
scooby_state_40238a|10|1 392,0,0,0,0,0,0,0,0,1,0,0,0,0,0,393,
scooby_state_40238a|59|1 393,0,0,0,0,0,0,0,0,0,0,0,0,0,0,393,
scooby_state_40238a|18|1 393,0,0,0,0,0,0,0,0,0,0,0,0,0,0,393,
scooby_state_40238a|55|1 392,0,0,0,0,0,0,1,0,0,0,0,0,0,0,393,
scooby_state_40238a|60|1 390,0,0,0,1,0,1,0,0,1,0,0,0,0,0,393,
scooby_state_40238a|47|1 391,0,0,0,2,0,0,0,0,0,0,0,0,0,0,393,
scooby_state_40238a|63|1 393,0,0,0,0,0,0,0,0,0,0,0,0,0,0,393,
scooby_state_40238a|42|1 392,0,0,1,0,0,0,0,0,0,0,0,0,0,0,393,
scooby_state_40238a|32|1 392,0,0,0,0,0,0,0,0,0,0,0,0,0,1,393,
scooby_state_40238a|43|1 393,0,0,0,0,0,0,0,0,0,0,0,0,0,0,393,
scooby_state_40238a|16|1 393,0,0,0,0,0,0,0,0,0,0,0,0,0,0,393,
scooby_state_40238a|15|1 391,0,0,0,0,0,1,0,1,0,0,0,0,0,0,393,
scooby_state_40238a|13|1 393,0,0,0,0,0,0,0,0,0,0,0,0,0,0,393,
scooby_state_40238a|61|1 393,0,0,0,0,0,0,0,0,0,0,0,0,0,0,393,
scooby_state_40238a|62|1 392,0,0,0,0,0,0,0,0,0,0,1,0,0,0,393,
scooby_state_40238a|12|1 391,1,0,1,0,0,0,0,0,0,0,0,0,0,0,393,
scooby_state_40238a|31|1 392,0,0,1,0,0,0,0,0,0,0,0,0,0,0,393,
scooby_state_40238a|35|1 392,0,0,0,0,0,0,0,0,0,0,0,0,0,1,393,
scooby_state_40238a|14|1 393,0,0,0,0,0,0,0,0,0,0,0,0,0,0,393,
scooby_state_40238a|34|1 393,0,0,0,0,0,0,0,0,0,0,0,0,0,0,393,
scooby_state_40238a|51|1 392,0,0,0,0,0,0,0,0,0,0,0,0,0,1,393,
scooby_state_40238a|37|1 391,0,0,0,1,0,0,0,0,0,0,1,0,0,0,393,
scooby_state_40238a|11|1 392,0,0,0,1,0,0,0,0,0,0,0,0,0,0,393,
scooby_state_40238a|39|1 393,0,0,0,0,0,0,0,0,0,0,0,0,0,0,393,
scooby_state_40238a|45|1 392,0,1,0,0,0,0,0,0,0,0,0,0,0,0,393,
scooby_state_40238a|49|1 393,0,0,0,0,0,0,0,0,0,0,0,0,0,0,393,
scooby_state_40238a|6|1 393,0,0,0,0,0,0,0,0,0,0,0,0,0,0,393,
scooby_state_40238a|5|1 393,0,0,0,0,0,0,0,0,0,0,0,0,0,0,393,
scooby_state_40238a|38|1 393,0,0,0,0,0,0,0,0,0,0,0,0,0,0,393,
scooby_state_40238a|46|1 392,1,0,0,0,0,0,0,0,0,0,0,0,0,0,393,
scooby_state_40238a|58|1 393,0,0,0,0,0,0,0,0,0,0,0,0,0,0,393,
scooby_state_40238a|4|1 393,0,0,0,0,0,0,0,0,0,0,0,0,0,0,393,
scooby_state_40238a|2|1 392,0,0,0,0,0,0,1,0,0,0,0,0,0,0,393,
scooby_state_40238a|29|1 393,0,0,0,0,0,0,0,0,0,0,0,0,0,0,393,
scooby_state_40238a|33|1 392,0,0,0,0,0,1,0,0,0,0,0,0,0,0,393,
scooby_state_40238a|40|1 392,0,0,0,1,0,0,0,0,0,0,0,0,0,0,393,
scooby_state_40238a|9|1 392,0,0,0,0,0,0,0,0,0,0,1,0,0,0,393,
scooby_state_40238a|1|1 391,0,0,0,0,0,1,1,0,0,0,0,0,0,0,393,
scooby_state_40238a|48|1 390,0,1,0,0,0,0,0,0,0,1,0,1,0,0,393,
scooby_state_40238a|17|1 393,0,0,0,0,0,0,0,0,0,0,0,0,0,0,393,
scooby_state_40238a|7|1 392,0,0,0,0,0,0,1,0,0,0,0,0,0,0,393,
scooby_state_40238a|25|1 389,0,0,0,1,0,0,0,0,0,0,0,0,0,0,390,
scooby_state_40238a|19|1 390,0,0,0,0,0,0,0,0,0,0,0,0,0,0,390,
scooby_state_40238a|27|1 390,0,0,0,0,0,0,0,0,0,0,0,0,0,0,390,
scooby_state_40238a|23|1 389,0,0,0,1,0,0,0,0,0,0,0,0,0,0,390,
scooby_state_40238a|20|1 390,0,0,0,0,0,0,0,0,0,0,0,0,0,0,390,
scooby_state_40238a|21|1 388,0,0,0,1,0,0,0,0,0,0,0,0,1,0,390,
scooby_state_40238a|26|1 389,0,0,0,0,0,0,0,0,0,0,1,0,0,0,390,
scooby_state_40238a|28|1 390,0,0,0,0,0,0,0,0,0,0,0,0,0,0,390,
scooby_state_40238a|22|1 389,0,0,0,0,1,0,0,0,0,0,0,0,0,0,390,
scooby_state_40238a|24|1 389,0,0,0,0,0,1,0,0,0,0,0,0,0,0,390,
scooby_state_40238a|0|0 386,1,0,0,0,0,0,0,0,0,1,0,0,0,1,389,
scooby_state_406930|35|34 372,0,1,0,1,2,3,0,0,1,2,2,0,2,2,388,
scooby_state_406930|13|-34 375,0,0,2,0,0,2,1,1,3,0,2,0,2,0,388,
scooby_state_406930|63|34 367,0,1,0,1,1,2,3,1,1,1,0,2,1,0,381,
scooby_state_406930|5|-34 360,2,1,1,1,3,0,1,2,0,0,2,4,0,2,379,
scooby_state_406930|20|-34 350,1,0,0,1,2,0,4,4,4,1,4,4,1,1,377,
scooby_state_406930|41|34 359,1,1,0,0,2,1,3,0,1,0,2,0,1,5,376,
scooby_state_406930|47|34 353,5,3,1,4,1,1,1,3,0,1,0,1,2,0,376,
scooby_state_406930|60|34 352,5,1,5,0,3,1,0,0,0,1,1,2,0,3,374,
scooby_state_406930|42|34 360,3,0,1,0,3,1,2,0,0,2,0,0,1,1,374,
scooby_state_406930|17|-34 357,2,0,1,1,2,1,1,3,1,0,0,2,0,2,373,
scooby_state_406930|11|-34 351,2,3,1,3,1,1,1,0,3,1,0,2,1,1,371,
scooby_state_406930|28|-34 350,1,0,1,3,0,1,3,1,2,2,1,1,1,4,371,
scooby_state_406930|7|-34 356,1,3,1,0,0,1,0,1,0,4,2,0,1,0,370,
scooby_state_406930|21|-34 357,0,0,2,1,1,0,2,0,1,2,0,1,0,2,369,
scooby_state_406930|4|-34 351,1,1,2,1,3,1,0,0,1,1,1,0,2,4,369,
scooby_state_406930|14|-34 338,4,1,1,3,0,4,0,2,1,3,0,2,2,5,366,
scooby_state_406930|12|-34 353,1,2,1,0,0,0,2,0,1,1,0,1,2,2,366,
scooby_state_406930|18|-34 343,0,1,2,2,1,3,1,2,3,0,0,2,1,4,365,
scooby_state_406930|29|-34 342,1,1,1,3,3,2,1,2,2,0,3,2,1,1,365,
scooby_state_406930|9|-34 346,0,0,2,2,2,1,0,0,2,2,0,3,1,0,361,
scooby_state_406930|56|34 346,0,1,2,0,0,3,1,1,0,1,2,1,1,1,360,
scooby_state_406930|23|-34 340,1,1,3,0,2,2,0,1,0,1,1,0,3,2,357,
scooby_state_406930|16|-34 328,2,2,0,2,3,2,3,2,1,2,3,2,2,1,355,
scooby_state_406930|22|-34 329,2,1,3,1,1,1,2,1,0,1,0,2,2,1,347,
scooby_state_406930|8|-34 327,1,0,1,0,3,1,1,0,2,1,1,0,1,3,342,
scooby_state_406930|27|-34 322,0,4,1,5,0,2,2,0,2,2,0,0,1,1,342,
scooby_state_406930|15|-34 320,0,3,1,0,2,2,1,0,0,3,3,0,1,4,340,
scooby_state_406930|1|-34 319,1,2,1,1,0,2,0,0,1,0,2,1,4,3,337,
scooby_state_406930|0|-34 314,1,1,4,0,0,1,0,2,3,0,2,3,1,3,335,
scooby_state_406930|2|-34 314,1,1,2,1,1,1,2,2,2,0,0,1,1,4,333,
scooby_state_406930|44|34 314,0,0,1,1,1,0,1,2,1,0,3,1,1,1,327,
scooby_state_406930|26|-34 313,1,1,1,1,1,1,1,0,1,0,1,0,0,1,323,
scooby_state_406930|6|-34 301,2,3,0,0,0,0,1,3,1,0,2,3,2,2,320,
scooby_state_406930|19|-34 308,1,0,1,1,1,1,1,1,0,2,0,1,0,1,319,
scooby_state_406930|3|-34 301,1,4,0,1,1,1,1,2,3,2,0,0,0,2,319,
scooby_state_406930|25|-34 301,3,1,0,1,2,1,0,1,1,0,2,2,2,1,318,
scooby_state_406c18|44|1 292,10,3,1,0,1,1,0,1,0,1,1,1,1,1,314,
scooby_state_406c18|42|1 287,7,5,1,2,0,1,0,0,1,1,0,1,0,0,306,
scooby_state_406c18|45|1 281,5,2,3,0,0,1,0,1,1,1,1,1,1,2,300,
scooby_state_406c18|43|1 281,7,4,0,2,0,1,0,1,1,1,0,2,0,0,300,
scooby_state_406c18|52|1 279,3,2,2,1,1,0,1,1,0,0,2,3,2,2,299,
scooby_state_406c18|51|1 278,3,2,4,2,1,1,1,0,0,0,2,1,1,2,298,
scooby_state_406c18|48|1 283,5,2,2,0,1,0,1,0,1,0,0,1,1,1,298,
scooby_state_406c18|47|1 280,5,2,2,1,1,0,1,0,1,1,0,0,2,1,297,
scooby_state_406c18|53|1 277,6,2,3,1,1,0,1,1,0,0,1,1,1,2,297,
scooby_state_406930|10|-34 272,3,0,2,3,2,0,1,4,2,1,2,2,1,0,295,
scooby_state_406c18|54|1 276,5,3,2,1,1,1,1,1,0,1,0,1,0,2,295,
scooby_state_406c18|49|1 279,6,1,2,0,2,0,0,0,0,0,1,1,1,2,295,
scooby_state_406c18|50|1 278,5,1,2,1,1,0,0,0,0,0,1,1,0,2,292,
scooby_state_406c18|46|1 271,1,2,3,2,1,1,1,0,1,1,1,0,1,1,287,
scooby_state_406c18|55|1 271,4,2,1,0,0,1,0,1,1,0,0,1,0,1,283,
scooby_state_406c18|56|1 265,5,2,1,0,0,0,0,1,1,0,0,1,0,0,276,
scooby_state_406c18|57|1 253,5,3,1,2,0,0,0,0,0,0,1,0,0,0,265,
scooby_state_406c18|58|1 251,1,1,1,0,0,0,1,1,0,0,1,0,0,0,257,
scooby_state_406c18|59|1 245,0,1,1,0,0,0,0,0,0,0,1,0,0,0,248,
scooby_state_406c18|60|1 234,0,0,0,0,0,0,0,0,0,0,2,0,1,0,237,
scooby_state_406c18|61|1 233,0,0,0,0,0,0,0,0,0,0,0,0,0,0,233,
scooby_state_406c18|62|1 227,0,0,0,0,0,0,0,0,0,0,0,0,0,0,227,
scooby_state_406c18|63|1 216,0,0,0,0,0,1,0,0,0,0,0,0,0,0,217,
scooby_state_406930|21|-35 195,2,2,1,2,2,1,1,1,0,2,0,3,0,0,212,
scooby_state_406930|1|-35 184,2,0,1,3,4,1,3,0,3,5,1,0,2,1,210,
scooby_state_406930|18|-35 191,5,0,1,1,2,0,1,0,2,1,1,1,2,2,210,
scooby_state_406930|5|-35 177,0,1,2,5,3,5,1,1,4,1,1,1,2,4,208,
scooby_state_406c18|0|0 207,0,0,0,0,0,0,0,0,0,0,0,0,0,0,207,
scooby_state_406930|8|-35 181,1,1,1,2,1,0,1,5,2,0,1,2,2,3,203,
scooby_state_406930|25|-35 186,2,2,2,0,0,1,1,0,1,1,1,1,1,0,199,
scooby_state_406930|11|-35 173,0,1,1,1,4,2,2,0,0,0,1,2,5,5,197,
scooby_state_406c18|1|1 196,0,0,0,0,0,0,0,0,0,0,0,0,0,0,196,
scooby_state_406930|2|-35 180,2,1,1,2,0,1,2,2,1,2,1,0,0,1,196,
scooby_state_406c3e|42|-1 183,2,0,0,0,0,2,1,1,0,1,2,0,1,1,194,
scooby_state_406930|13|-35 177,1,1,1,0,2,1,2,0,2,2,1,1,1,1,193,
scooby_state_406c18|41|0 165,2,4,12,0,0,1,1,1,1,2,1,0,2,1,193,
scooby_state_406c18|2|1 189,0,0,0,1,0,0,0,0,0,0,0,0,0,0,190,
scooby_state_406930|14|-35 181,0,0,0,0,0,2,0,1,1,2,1,0,0,2,190,
scooby_state_406930|9|-35 174,1,1,1,0,0,2,0,2,1,1,2,0,1,2,188,
scooby_state_406930|19|-35 165,3,0,2,1,3,1,1,2,1,1,0,3,0,2,185,
scooby_state_406930|0|-35 174,1,0,0,1,1,1,1,0,1,0,1,0,0,2,183,
scooby_state_406c18|3|1 180,0,0,0,0,0,0,0,0,0,0,0,0,0,0,180,
scooby_state_406930|27|-35 161,1,2,1,2,0,2,1,1,0,0,3,1,1,1,177,
scooby_state_406c3e|32|-1 164,2,0,2,1,2,0,1,0,1,0,1,2,0,1,177,
scooby_state_406930|24|-35 156,2,1,0,1,3,1,1,3,1,1,0,1,0,5,176,
scooby_state_406930|23|-35 156,1,2,1,2,1,2,0,1,1,2,1,3,2,1,176,
scooby_state_406930|28|-35 162,1,0,2,0,1,0,0,1,1,1,0,1,2,2,174,
scooby_state_406c3e|46|-1 169,0,0,0,0,0,2,2,0,1,0,0,0,0,0,174,
scooby_state_406930|26|-35 157,0,2,1,1,2,0,3,1,1,0,2,1,0,1,172,
scooby_state_406930|15|-35 160,1,1,3,0,0,0,1,1,2,0,0,3,0,0,172,
scooby_state_406c18|4|1 170,0,0,0,0,0,0,0,0,0,0,1,0,0,0,171,
scooby_state_406930|16|-35 159,2,2,0,0,0,0,1,0,1,0,2,1,1,1,170,
scooby_state_406930|22|-35 146,1,4,1,1,0,3,1,2,2,4,1,0,0,2,168,
scooby_state_406930|10|-35 154,0,1,2,1,2,1,1,0,0,1,4,1,0,0,168,
scooby_state_406c3e|13|-1 152,2,0,3,2,1,1,1,0,0,3,1,0,0,1,167,
scooby_state_406930|6|-35 156,1,1,1,2,0,1,0,1,0,0,0,0,2,0,165,
scooby_state_406c3e|44|-1 156,1,0,1,0,3,0,0,1,0,0,1,0,0,1,164,
scooby_state_406c3e|56|-1 152,1,1,0,2,1,1,2,0,1,1,1,0,0,0,163,
scooby_state_406c1c|62|1 149,1,1,2,0,0,3,0,1,1,0,0,0,2,2,162,
scooby_state_406c3e|43|-1 153,0,0,1,0,0,0,0,0,0,1,0,1,2,2,160,
scooby_state_406930|7|-35 145,2,0,2,0,0,2,2,0,2,1,0,4,0,0,160,
scooby_state_406c3e|7|-1 148,1,1,1,0,0,0,1,1,0,0,2,1,0,3,159,
scooby_state_406c18|5|1 158,0,0,0,0,0,0,0,0,0,0,0,0,0,0,158,
scooby_state_406c18|39|0 142,1,3,10,0,1,0,0,0,0,0,1,0,0,0,158,
scooby_state_406c3e|29|-1 149,0,2,0,2,0,1,0,1,0,1,1,0,0,0,157,
scooby_state_406c3e|18|-1 146,0,1,1,1,1,0,0,1,0,0,0,3,1,2,157,
scooby_state_406c3e|58|-1 146,0,0,2,2,0,0,1,0,0,0,3,1,0,2,157,
scooby_state_406930|17|-35 142,2,1,1,0,0,0,1,0,2,1,3,0,1,3,157,
scooby_state_406c3e|11|-1 146,0,2,1,0,0,1,0,0,1,0,2,0,3,1,157,
scooby_state_406c3e|49|-1 141,1,0,1,4,1,1,0,0,0,1,1,0,2,2,155,
scooby_state_406c3e|52|-1 149,2,0,0,1,0,0,2,0,0,0,0,0,0,0,154,
scooby_state_406930|4|-35 143,2,0,0,1,0,0,0,3,2,1,0,0,1,1,154,
scooby_state_406c3e|62|-1 146,0,0,1,1,1,0,1,1,0,1,0,0,1,0,153,
scooby_state_406930|20|-35 141,1,2,1,0,0,0,2,0,2,1,0,0,1,1,152,
scooby_state_406c3e|9|-1 143,1,1,0,0,3,0,1,1,0,1,1,0,0,0,152,
scooby_state_406c1c|42|1 145,0,1,1,2,1,0,0,0,0,0,1,0,0,1,152,
scooby_state_406930|12|-35 142,1,1,0,1,3,0,0,1,0,1,1,0,0,0,151,
scooby_state_406930|3|-35 142,0,0,0,1,0,0,1,1,0,0,1,0,2,2,150,
scooby_state_406c3e|24|-1 136,2,1,0,2,0,1,1,1,0,0,2,0,0,4,150,
scooby_state_406c18|6|1 150,0,0,0,0,0,0,0,0,0,0,0,0,0,0,150,
scooby_state_406c1c|44|1 142,0,0,1,0,0,0,0,0,0,0,0,2,4,0,149,
scooby_state_406c3e|51|-1 139,0,1,1,0,0,1,1,1,0,1,2,0,1,0,148,
scooby_state_406c3e|14|-1 137,0,0,1,2,0,0,0,1,0,2,2,0,1,2,148,
scooby_state_406c3e|45|-1 141,0,1,0,2,0,0,0,0,2,0,0,1,0,0,147,
scooby_state_406c3e|59|-1 132,3,2,0,0,0,2,0,2,0,1,0,0,3,1,146,
scooby_state_406c3e|2|-1 133,1,0,1,1,1,1,1,2,1,1,0,2,0,1,146,
scooby_state_406c3e|1|-1 136,0,1,1,0,1,1,1,1,1,0,0,1,0,1,145,
scooby_state_406c1c|63|1 139,2,0,0,0,0,0,0,1,0,0,1,0,0,2,145,
scooby_state_406c1c|29|1 136,0,3,2,0,0,0,0,2,0,0,0,1,0,1,145,
scooby_state_406c3e|0|-1 136,1,0,2,0,2,1,1,0,1,0,0,0,1,0,145,
scooby_state_406c3e|41|-1 137,0,0,1,1,0,0,1,0,0,2,1,1,1,0,145,
scooby_state_406c3e|55|-1 139,1,0,1,1,0,0,0,0,1,0,0,1,1,0,145,
scooby_state_406c3e|48|-1 139,0,0,1,0,1,0,0,0,1,0,0,0,2,1,145,
scooby_state_406c3e|54|-1 135,1,3,0,0,1,0,3,0,1,0,0,0,0,0,144,
scooby_state_406c3e|28|-1 139,0,0,0,0,0,0,1,0,0,0,0,1,2,1,144,
scooby_state_406930|46|35 129,1,3,1,1,0,0,2,0,0,0,0,3,2,2,144,
scooby_state_406c18|41|1 136,2,2,1,0,0,1,0,0,0,0,1,0,0,0,143,
scooby_state_406c3e|53|-1 138,0,1,0,0,2,2,0,0,0,0,0,0,0,0,143,
scooby_state_406c1c|55|1 138,0,1,0,0,0,0,0,0,0,0,0,1,0,2,142,
scooby_state_406c3e|25|-1 135,0,1,1,0,1,0,0,1,0,0,1,1,0,1,142,
scooby_state_406c1c|50|1 135,0,0,1,2,0,0,0,1,0,0,1,1,0,0,141,
scooby_state_406c3e|61|-1 135,0,1,0,0,0,1,0,1,1,0,0,1,0,1,141,
scooby_state_406c1c|40|1 138,0,2,0,0,0,0,0,0,0,0,0,0,0,1,141,
scooby_state_406c1c|26|1 134,1,2,0,1,1,0,0,1,1,0,0,0,0,0,141,
scooby_state_406c18|7|1 140,0,1,0,0,0,0,0,0,0,0,0,0,0,0,141,
scooby_state_406c1c|43|1 131,1,1,1,1,0,1,0,1,0,1,0,2,0,0,140,
scooby_state_406c1c|46|1 132,1,0,0,1,0,0,0,2,1,1,1,0,0,1,140,
scooby_state_406c1c|34|1 131,0,1,1,0,3,0,0,1,2,0,0,0,0,1,140,
scooby_state_406c1c|37|1 132,1,0,0,0,0,0,0,0,0,1,1,2,1,1,139,
scooby_state_406c1c|7|1 134,1,0,0,0,1,1,0,0,0,0,0,0,1,1,139,
scooby_state_406c3e|57|-1 131,0,1,2,0,0,0,0,0,1,0,1,2,1,0,139,
scooby_state_406c1c|1|1 132,0,0,1,0,0,0,0,1,0,2,1,1,0,0,138,
scooby_state_406c1c|45|1 130,1,0,0,0,0,0,1,0,0,1,1,1,2,1,138,
scooby_state_406c1c|49|1 133,0,1,0,0,0,0,0,0,0,0,1,0,1,2,138,
scooby_state_406c3e|50|-1 132,0,3,0,0,0,0,0,1,0,1,0,0,0,1,138,
scooby_state_406c1c|39|1 131,0,1,0,0,0,2,0,0,0,1,2,0,0,0,137,
scooby_state_406c3e|27|-1 130,0,0,0,0,1,1,1,1,1,0,2,0,0,0,137,
scooby_state_406c3e|20|-1 125,2,1,0,1,1,0,1,1,0,1,0,1,1,2,137,
scooby_state_406c3e|47|-1 129,0,0,1,0,0,1,1,2,0,0,0,0,1,2,137,
scooby_state_406c3e|22|-1 128,1,0,1,0,1,0,1,0,0,1,0,1,0,2,136,
scooby_state_406c3e|39|-1 130,1,0,0,0,1,0,0,1,1,0,0,1,0,1,136,
scooby_state_406c18|40|1 126,2,1,5,0,0,1,0,0,0,0,1,0,0,0,136,
scooby_state_406c3e|4|-1 124,0,1,1,2,1,0,0,2,1,1,0,1,0,2,136,
scooby_state_406c1c|23|1 129,0,0,0,0,0,1,0,0,1,0,2,0,2,1,136,
scooby_state_406c1c|3|1 129,1,0,0,1,0,0,0,2,0,1,0,1,1,0,136,
scooby_state_406c1c|54|1 131,0,1,0,0,0,0,0,0,0,0,0,1,0,3,136,
scooby_state_406c1c|18|1 127,0,0,3,0,0,0,1,0,2,1,1,0,0,0,135,
scooby_state_406c3e|23|-1 126,1,0,0,0,0,2,1,1,2,1,0,1,0,0,135,
scooby_state_406c3e|5|-1 125,3,0,0,0,0,1,2,2,0,0,0,0,1,1,135,
scooby_state_406c3e|38|-1 127,0,0,1,0,1,1,1,0,0,1,0,0,2,1,135,
scooby_state_406c1c|16|1 129,1,0,1,0,0,0,1,0,1,1,0,0,1,0,135,
scooby_state_406c1c|32|1 129,0,0,3,0,1,0,0,0,0,0,0,0,1,0,134,
scooby_state_406930|37|35 110,2,1,1,2,1,2,3,1,2,2,0,3,2,2,134,
scooby_state_406c3e|26|-1 124,0,2,1,1,1,0,0,1,1,1,0,0,0,1,133,
scooby_state_406c3e|19|-1 122,1,0,0,0,1,3,0,0,0,1,1,2,2,0,133,
scooby_state_406c1c|41|1 130,0,0,1,0,1,1,0,0,0,0,0,0,0,0,133,
scooby_state_406930|48|35 118,1,0,1,0,3,1,1,2,1,0,1,0,2,2,133,
scooby_state_406c1c|38|1 128,1,2,0,0,0,0,0,0,0,0,0,0,0,1,132,
scooby_state_406c1c|47|1 128,0,0,1,0,1,1,0,0,0,0,1,0,0,0,132,
scooby_state_406c1c|2|1 124,0,0,0,0,2,0,0,1,0,0,1,1,1,1,131,
scooby_state_406c1c|60|1 124,1,0,0,1,1,1,0,0,2,0,0,1,0,0,131,
scooby_state_406c1c|25|1 123,1,1,0,1,1,1,0,1,1,0,0,1,0,0,131,
scooby_state_406c1c|19|1 126,0,0,0,0,0,0,1,0,0,1,1,2,0,0,131,
scooby_state_406930|44|35 121,1,0,2,0,0,2,0,0,2,1,0,0,2,0,131,
scooby_state_406c3e|31|-1 125,0,0,2,0,0,0,1,0,1,0,0,0,1,0,130,
scooby_state_406c18|8|1 130,0,0,0,0,0,0,0,0,0,0,0,0,0,0,130,
scooby_state_406c1c|30|1 125,0,0,0,0,1,1,1,0,0,0,1,0,1,0,130,
scooby_state_406c1c|52|1 125,0,1,1,0,1,0,0,0,1,0,0,1,0,0,130,
scooby_state_406c1c|22|1 119,1,0,0,1,2,1,2,0,1,0,0,0,0,1,128,
scooby_state_406c3e|37|-1 117,3,0,0,1,0,1,3,1,0,1,0,0,1,0,128,
scooby_state_406c3e|8|-1 118,0,1,0,1,0,1,0,3,1,0,0,0,0,2,127,
scooby_state_406c1c|35|1 122,0,1,1,0,0,1,0,1,1,0,0,0,0,0,127,
scooby_state_406c1c|59|1 117,2,1,1,1,0,0,1,0,1,0,0,1,0,2,127,
scooby_state_406c3e|63|0 2,8,10,10,8,7,8,7,8,7,7,11,9,11,14,127,
scooby_state_406930|40|35 102,1,2,1,1,0,2,2,3,2,3,1,1,1,4,126,
scooby_state_406c1c|17|1 119,1,0,0,0,1,0,0,0,2,1,0,0,0,2,126,
scooby_state_406c3e|60|-1 122,1,0,0,0,0,0,0,0,1,0,0,0,1,1,126,
scooby_state_406c1c|51|1 120,0,0,1,1,0,1,0,0,1,0,0,2,0,0,126,
scooby_state_406c1c|12|1 117,1,1,0,1,1,0,0,1,0,0,0,3,0,1,126,
scooby_state_406c3e|6|-1 121,1,0,0,1,0,0,0,0,1,0,0,1,0,0,125,
scooby_state_406c3e|33|-1 119,0,0,1,0,0,0,0,1,3,0,0,0,0,1,125,
scooby_state_406c3e|12|-1 119,0,0,1,0,0,0,0,0,1,0,0,2,1,0,124,
scooby_state_406c3e|15|-1 119,1,1,0,1,0,0,0,0,1,0,1,0,0,0,124,
scooby_state_406c1c|57|1 116,0,0,0,0,1,0,2,0,0,1,1,1,1,1,124,
scooby_state_406c1c|20|1 119,0,0,0,0,1,1,1,0,1,0,0,0,0,1,124,
scooby_state_406930|58|35 103,0,0,3,2,1,3,0,1,1,2,1,5,1,0,123,
scooby_state_406c1c|24|1 118,0,0,3,1,0,0,0,0,1,0,0,0,0,0,123,
scooby_state_406c1c|28|1 116,0,0,0,1,0,0,0,0,0,0,2,1,1,2,123,
scooby_state_406c1c|58|1 115,1,0,1,1,0,1,0,0,1,0,1,0,1,1,123,
scooby_state_406c1c|56|1 117,0,0,0,0,1,0,2,0,0,0,2,0,1,0,123,
scooby_state_406c3e|40|-1 115,0,1,1,0,1,0,0,1,1,1,0,0,0,2,123,
scooby_state_406c1c|48|1 118,1,1,0,0,0,0,0,1,1,0,0,0,0,0,122,
scooby_state_406c1c|53|1 117,0,0,0,0,2,0,1,1,0,0,1,0,0,0,122,
scooby_state_406c3e|35|-1 114,0,0,2,0,0,1,0,0,0,0,0,3,1,1,122,
scooby_state_406c1c|33|1 116,0,0,1,2,0,0,1,0,0,0,0,1,1,0,122,
scooby_state_406c3e|21|-1 115,2,0,0,1,0,0,0,0,1,0,1,1,0,0,121,
scooby_state_406c1c|27|1 117,1,0,0,1,0,0,0,1,0,1,0,0,0,0,121,
scooby_state_406c3e|30|-1 112,1,0,0,0,2,0,0,1,2,0,0,1,1,0,120,
scooby_state_406c1c|5|1 117,1,0,0,0,0,0,1,0,0,0,0,1,0,0,120,
scooby_state_406c18|9|1 120,0,0,0,0,0,0,0,0,0,0,0,0,0,0,120,
scooby_state_406930|36|35 100,1,1,1,1,1,4,1,4,1,0,3,0,0,2,120,
scooby_state_406c1c|61|1 112,0,1,0,0,0,1,1,1,2,0,1,0,0,1,120,
scooby_state_406c3e|34|-1 112,0,0,0,0,0,0,0,1,0,1,1,0,1,4,120,
scooby_state_406c3e|10|-1 113,0,2,1,1,0,0,0,0,1,0,0,1,0,0,119,
scooby_state_406930|43|35 107,0,0,1,2,3,1,0,0,0,0,0,0,3,2,119,
scooby_state_406c3e|17|-1 112,1,1,1,0,0,0,0,0,0,1,1,0,1,1,119,
scooby_state_406c3e|3|-1 110,0,1,1,0,0,0,0,1,2,0,2,0,1,1,119,
scooby_state_406c1c|15|1 116,0,0,0,0,0,0,0,0,0,0,0,0,0,3,119,
scooby_state_406c1c|12|-34 101,3,1,0,2,0,1,0,0,0,1,3,4,0,2,118,
scooby_state_406c1c|31|1 112,0,0,0,0,1,0,0,1,1,0,1,1,1,0,118,
scooby_state_406c1c|36|1 109,0,0,0,1,0,0,0,2,0,2,0,0,1,2,117,
scooby_state_406c3e|36|-1 106,3,1,1,2,0,0,1,0,0,1,0,0,0,2,117,
scooby_state_406c1c|21|1 113,0,0,0,1,0,0,0,1,1,0,1,0,0,0,117,
scooby_state_406c1c|6|1 115,0,0,0,0,0,0,0,0,0,0,1,0,0,0,116,
scooby_state_406930|49|35 103,1,3,1,0,0,1,0,0,1,1,1,1,0,3,116,
scooby_state_406c1c|28|-34 96,1,1,1,0,1,0,1,2,2,3,3,2,1,1,115,
scooby_state_406930|62|35 96,1,2,1,1,0,0,1,0,3,1,2,0,3,4,115,
scooby_state_406930|47|35 101,0,3,0,1,1,0,0,0,2,1,4,1,0,0,114,
scooby_state_406c1c|10|1 106,1,0,0,0,1,0,1,0,0,1,0,1,2,0,113,
scooby_state_406c3e|16|-1 107,0,1,0,1,0,0,0,0,0,0,1,0,0,2,112,
scooby_state_406c1c|13|1 102,2,1,0,2,0,2,0,0,0,0,1,0,0,1,111,
scooby_state_406930|54|35 89,0,2,3,1,1,1,1,3,1,2,0,1,1,4,110,
scooby_state_406930|38|35 98,1,1,1,2,0,0,1,0,2,0,0,2,1,0,109,
scooby_state_406c1c|11|1 104,0,0,1,0,0,0,0,0,1,1,0,1,0,1,109,
scooby_state_406c1c|9|1 104,1,2,0,0,0,0,1,0,0,0,0,1,0,0,109,
scooby_state_406c1c|8|1 107,0,0,0,0,1,0,0,0,0,0,0,0,0,0,108,
scooby_state_406c18|10|1 106,0,0,0,0,0,0,1,0,0,0,0,0,0,0,107,
scooby_state_406930|60|35 95,4,0,1,1,0,0,2,0,1,0,0,0,2,0,106,
scooby_state_406930|41|35 90,0,0,2,0,2,1,3,1,0,0,1,0,2,4,106,
scooby_state_406c1c|24|-34 84,1,2,2,1,1,1,1,2,0,2,1,2,2,3,105,
scooby_state_406c1c|14|1 104,0,0,0,0,0,0,0,0,0,0,0,0,0,1,105,
scooby_state_406930|53|35 89,3,2,0,1,3,0,0,2,0,1,1,0,1,2,105,
scooby_state_406c1c|26|-34 85,1,2,0,1,2,0,0,2,1,3,3,3,1,1,105,
scooby_state_406930|56|35 88,0,2,1,4,1,1,1,1,0,1,2,1,0,1,104,
scooby_state_406c1c|10|-34 86,0,1,1,2,1,3,1,1,1,0,2,1,0,4,104,
scooby_state_406c1c|9|-34 87,1,1,1,0,0,1,0,0,2,1,3,0,2,4,103,
scooby_state_406930|39|35 78,2,4,1,3,0,3,3,1,1,0,2,3,1,1,103,
scooby_state_406c1c|13|-34 86,0,0,0,2,0,1,1,1,2,1,2,1,3,1,101,
scooby_state_406c1c|23|-34 81,1,0,0,1,2,2,2,2,2,2,1,1,2,2,101,
scooby_state_406930|50|35 88,0,1,1,1,1,2,0,1,1,1,2,0,1,1,101,
scooby_state_406930|51|35 88,2,0,0,1,0,1,0,0,0,3,2,1,2,1,101,
scooby_state_406c1c|17|-34 89,1,1,1,1,0,0,1,1,1,0,0,0,2,2,100,
scooby_state_406c1c|4|1 97,0,0,0,0,0,1,0,0,0,0,0,0,2,0,100,
scooby_state_406930|57|35 89,2,0,0,0,1,0,1,1,1,0,0,2,0,2,99,
scooby_state_406930|59|35 87,2,0,1,1,1,2,1,1,0,0,1,0,1,1,99,
scooby_state_406c1c|0|-34 85,2,3,0,3,0,1,1,1,0,1,2,0,0,0,99,
scooby_state_406930|42|35 87,0,1,0,0,3,0,1,0,0,1,1,1,1,3,99,
scooby_state_406930|63|35 85,0,0,2,1,0,0,1,4,1,0,1,0,1,1,97,
scooby_state_406c1c|14|-34 75,2,3,2,2,1,1,2,1,2,0,2,2,0,1,96,
scooby_state_406930|45|35 90,0,1,1,0,0,1,0,0,0,1,0,1,1,0,96,
scooby_state_406930|55|35 89,1,0,1,0,0,0,0,0,0,0,1,1,1,1,95,
scooby_state_406c18|11|1 95,0,0,0,0,0,0,0,0,0,0,0,0,0,0,95,
scooby_state_406c1c|3|-34 80,2,2,2,0,2,1,2,0,0,0,0,0,0,2,93,
scooby_state_406c1c|20|-34 76,2,2,1,2,0,0,0,1,1,1,0,1,3,2,92,
scooby_state_406c1c|19|-34 78,2,1,1,1,1,1,2,0,1,0,0,1,0,1,90,
scooby_state_406c1c|29|-34 79,1,0,0,0,0,0,0,0,0,1,6,1,1,1,90,
scooby_state_406c1c|27|-34 73,1,0,1,1,3,1,0,1,3,2,1,0,2,1,90,
scooby_state_406c1c|15|-34 77,1,0,1,0,1,1,0,3,0,1,1,2,0,1,89,
scooby_state_406c1c|11|-34 73,0,1,1,1,1,1,2,2,0,0,3,2,0,0,87,
scooby_state_406930|35|35 80,0,0,1,3,0,0,0,1,0,1,0,0,0,1,87,
scooby_state_406930|61|35 70,1,1,1,0,3,1,1,1,0,0,3,0,1,2,85,
scooby_state_406c1c|7|-34 73,1,1,1,2,0,1,2,1,0,1,1,0,0,1,85,
scooby_state_406c1c|6|-34 72,2,0,0,1,0,2,1,2,0,0,0,1,0,3,84,
scooby_state_406c1c|25|-34 67,3,1,1,0,0,0,1,2,2,3,2,1,0,1,84,
scooby_state_406930|52|35 73,1,2,1,0,1,0,0,0,0,1,1,3,0,1,84,
scooby_state_406c1c|21|-34 70,0,1,1,1,0,0,4,1,1,0,0,1,2,2,84,
scooby_state_406c18|12|1 82,0,0,0,0,0,0,0,0,0,0,0,0,0,0,82,
scooby_state_406c1c|22|-34 68,0,1,1,0,5,1,1,0,0,0,0,1,1,1,80,
scooby_state_406c1c|5|-34 62,1,1,1,2,0,1,2,1,1,1,3,0,0,0,76,
scooby_state_406c1c|18|-34 67,0,0,1,0,1,3,0,0,2,0,1,0,0,0,75,
scooby_state_406c1c|1|-34 60,0,0,1,1,0,2,0,1,1,2,2,0,1,2,73,
scooby_state_406c1c|4|-34 60,0,1,1,1,4,0,1,0,2,2,1,0,0,0,73,
scooby_state_406c1c|8|-34 61,1,0,1,0,1,1,2,0,0,2,2,0,1,1,73,
scooby_state_406c1c|2|-34 61,1,1,0,0,1,2,0,1,0,1,0,2,2,0,72,
scooby_state_406c1c|16|-34 61,0,0,4,0,1,0,1,1,2,0,0,0,0,1,71,
scooby_state_406c18|13|1 68,0,0,0,0,0,0,0,0,0,0,0,0,0,0,68,
scooby_state_406c18|14|1 59,0,0,0,0,0,0,0,0,0,0,0,0,0,0,59,
scooby_state_406c1c|60|35 36,4,1,1,1,2,1,1,1,0,0,1,1,0,2,52,
scooby_state_406c1c|59|35 35,0,1,1,0,0,2,0,2,0,1,4,1,1,3,51,
scooby_state_406c1c|35|35 28,3,3,1,0,1,1,2,2,1,2,4,0,0,1,49,
scooby_state_406c1c|58|35 34,1,2,2,0,0,0,1,1,0,0,4,0,2,1,48,
scooby_state_406c1c|48|35 30,1,1,1,4,1,0,0,2,3,0,2,0,1,1,47,
scooby_state_406c1c|54|35 30,0,2,1,0,3,2,0,0,1,0,3,0,0,5,47,
scooby_state_406c1c|53|34 29,2,2,0,2,2,1,0,0,1,1,1,2,3,1,47,
scooby_state_406c18|15|1 46,0,0,0,0,0,0,0,0,0,0,0,0,0,0,46,
scooby_state_406c1c|63|35 37,0,1,2,0,0,0,0,0,1,0,3,0,2,0,46,
scooby_state_406c1c|55|35 31,2,0,3,0,0,1,3,0,0,1,3,2,0,0,46,
scooby_state_406c1c|45|35 32,0,1,0,3,0,0,1,0,1,1,4,0,0,1,44,
scooby_state_406c1c|43|35 26,2,3,0,0,0,2,0,0,1,1,5,1,2,1,44,
scooby_state_406c1c|38|35 32,0,1,0,0,3,0,1,1,0,2,1,2,1,0,44,
scooby_state_406c1c|47|35 32,2,1,0,0,0,0,1,0,1,1,3,0,1,2,44,
scooby_state_406c1c|62|35 26,2,0,1,2,3,0,0,1,0,2,6,0,0,1,44,
scooby_state_406c1c|53|35 23,0,0,1,4,2,3,0,2,1,0,1,4,0,2,43,
scooby_state_406c1c|58|34 25,3,2,2,2,0,2,1,0,1,1,0,0,1,2,42,
scooby_state_406c1c|41|35 32,1,0,0,1,0,0,0,2,1,1,2,1,0,1,42,
scooby_state_406c1c|56|35 32,1,1,0,0,1,1,1,2,0,1,1,1,0,0,42,
scooby_state_406c1c|55|34 24,3,1,0,1,0,1,2,3,1,2,3,0,0,1,42,
scooby_state_406c1c|49|34 26,3,1,0,1,0,0,1,1,0,0,2,1,1,4,41,
scooby_state_406c1c|51|35 26,1,1,0,1,1,0,1,0,2,2,2,1,3,0,41,
scooby_state_406c1c|42|35 27,1,1,0,1,0,1,3,0,1,1,4,0,1,0,41,
scooby_state_406c1c|45|34 24,2,0,1,1,3,1,2,0,1,1,1,0,0,4,41,
scooby_state_406c1c|37|35 26,0,0,1,0,0,2,0,2,0,1,4,3,1,1,41,
scooby_state_406c1c|35|34 27,1,1,0,1,2,2,0,0,0,1,0,1,0,5,41,
scooby_state_406c1c|44|35 25,2,1,2,0,0,0,0,0,2,0,2,4,0,2,40,
scooby_state_406c1c|40|35 25,1,0,3,2,0,0,0,1,1,1,2,1,1,2,40,
scooby_state_406c1c|42|34 25,1,0,2,0,2,2,1,0,0,2,1,1,1,1,39,
scooby_state_406c1c|46|35 27,0,2,2,0,2,0,0,1,0,0,1,1,3,0,39,
scooby_state_406c1c|51|34 26,0,2,1,2,2,1,0,0,0,1,0,2,1,1,39,
scooby_state_406c1c|37|34 26,0,1,2,1,0,1,1,0,0,0,3,1,1,2,39,
scooby_state_406c1c|49|35 26,0,0,1,1,1,1,0,1,2,0,2,1,2,0,38,
scooby_state_406c1c|52|34 20,1,3,0,0,1,2,0,1,0,1,1,2,4,2,38,
scooby_state_406c1c|48|34 27,2,0,1,0,2,1,0,0,1,1,0,1,0,1,37,
scooby_state_406c1c|61|34 21,0,1,0,1,0,0,1,2,0,0,2,3,0,6,37,
scooby_state_406c1c|57|35 23,1,1,0,0,0,1,0,0,0,0,5,1,2,3,37,
scooby_state_406c1c|47|34 22,0,0,0,2,0,2,2,1,3,0,1,0,2,1,36,
scooby_state_406c1c|39|35 24,1,1,0,2,0,1,1,0,0,1,3,1,1,0,36,
scooby_state_406c1c|57|34 24,0,0,4,1,1,1,0,0,2,1,1,0,1,0,36,
scooby_state_406c1c|52|35 26,0,0,0,0,2,2,0,0,0,0,2,0,0,3,35,
scooby_state_406c1c|39|34 26,0,2,1,0,1,2,0,0,1,0,0,1,1,0,35,
scooby_state_406c1c|50|35 21,2,0,1,0,1,1,1,0,0,2,3,0,1,2,35,
scooby_state_406c1c|61|35 21,0,1,1,2,0,0,3,1,1,0,1,0,3,1,35,
scooby_state_406c1c|62|34 26,1,2,1,0,0,2,0,1,0,0,2,0,0,0,35,
scooby_state_406c18|16|1 34,0,0,0,0,0,0,0,0,0,0,0,0,0,0,34,
scooby_state_406c1c|44|34 20,0,0,1,1,0,2,2,1,0,2,0,0,1,2,32,
scooby_state_406c1c|36|35 22,0,1,1,0,1,0,3,0,1,0,0,0,2,1,32,
scooby_state_406c1c|63|34 20,1,1,1,0,0,0,2,2,0,1,1,1,0,1,31,
scooby_state_406c1c|59|34 18,0,2,2,0,2,0,1,1,1,0,0,2,2,0,31,
scooby_state_406c1c|36|34 18,1,1,0,0,0,1,1,0,1,1,1,1,2,3,31,
scooby_state_406c1c|46|34 15,1,1,0,3,1,0,1,0,0,1,2,2,3,0,30,
scooby_state_406c1c|60|34 19,2,0,0,2,1,0,0,2,1,0,0,1,1,1,30,
scooby_state_406c1c|38|34 16,0,0,1,0,0,0,3,1,2,0,2,0,2,1,28,
scooby_state_406c1c|34|34 17,1,0,0,0,1,1,2,1,1,1,0,2,1,0,28,
scooby_state_406c1c|43|34 20,1,2,2,0,1,0,0,0,1,1,0,0,0,0,28,
scooby_state_406c49|14|-2 18,3,1,1,0,0,0,1,0,1,1,0,0,0,1,27,
scooby_state_406c49|45|-2 18,3,0,0,0,0,0,0,0,1,0,0,2,2,1,27,
scooby_state_406c49|19|-2 20,2,0,0,0,2,0,1,1,0,1,0,0,0,0,27,
scooby_state_406c18|43|2 5,1,0,1,1,1,1,0,0,0,2,9,2,2,2,27,
scooby_state_406c18|46|2 10,0,0,2,1,0,2,0,0,0,1,5,2,1,3,27,
scooby_state_406c49|27|-2 19,1,1,0,2,1,0,0,0,0,1,0,1,0,0,26,
scooby_state_406a5c|32|0 7,1,4,1,1,1,3,2,3,3,0,0,0,0,0,26,
scooby_state_406c1c|40|34 15,0,1,1,0,0,1,0,0,3,0,0,2,0,2,25,
scooby_state_406c49|0|-1 13,0,1,1,2,1,2,0,0,0,1,2,0,1,1,25,
scooby_state_406a5c|25|0 5,4,1,3,0,1,5,3,1,2,0,0,0,0,0,25,
scooby_state_406c1c|41|34 17,0,0,0,0,1,1,0,2,0,0,3,0,0,1,25,
scooby_state_406c1c|54|34 13,0,0,0,4,1,0,0,2,1,2,0,1,0,1,25,
scooby_state_406930|62|33 12,2,0,1,2,2,1,0,1,0,3,0,0,0,0,24,
scooby_state_406c18|17|1 24,0,0,0,0,0,0,0,0,0,0,0,0,0,0,24,
scooby_state_406c49|4|-2 16,2,0,0,0,0,0,0,0,1,0,4,1,0,0,24,
scooby_state_406c49|10|-2 19,2,1,0,1,0,0,0,0,0,0,0,0,1,0,24,
scooby_state_406a5c|20|0 3,4,4,2,3,1,1,2,3,1,0,0,0,0,0,24,
scooby_state_406c49|20|-2 19,0,1,0,0,0,0,0,0,0,0,1,0,2,1,24,
scooby_state_406a5c|22|0 6,2,1,2,2,0,4,4,2,1,0,0,0,0,0,24,
scooby_state_406a5c|28|0 4,1,2,3,3,1,2,4,2,2,0,0,0,0,0,24,
scooby_state_406a5c|7|0 3,1,0,6,2,1,4,1,4,2,0,0,0,0,0,24,
scooby_state_406930|48|33 9,3,3,0,1,2,1,0,1,0,0,0,1,3,0,24,
scooby_state_406c49|62|-1 11,1,0,2,1,2,0,0,3,1,0,1,0,1,1,24,
scooby_state_406a5c|24|0 2,1,5,2,4,0,2,3,3,1,0,0,0,0,0,23,
scooby_state_406c49|2|-2 16,2,1,0,1,0,0,0,0,1,0,0,1,0,1,23,
scooby_state_406a5c|3|0 0,2,1,4,3,0,8,3,1,1,0,0,0,0,0,23,
scooby_state_406a5c|38|0 1,3,1,5,2,1,3,4,2,1,0,0,0,0,0,23,
scooby_state_406c49|21|-2 16,1,0,0,0,0,1,1,0,0,0,0,0,3,1,23,
scooby_state_406a5c|34|0 0,0,2,6,5,0,2,1,6,0,0,0,0,0,0,22,
scooby_state_406c18|40|0 19,0,0,1,1,0,0,0,0,0,0,0,1,0,0,22,
scooby_state_406c49|61|-2 12,3,1,0,0,1,1,0,0,1,1,0,0,0,2,22,
scooby_state_406c49|41|-2 16,2,0,1,1,0,0,1,0,0,0,0,0,1,0,22,
scooby_state_406930|55|33 6,2,1,0,3,1,0,0,0,0,2,1,2,3,1,22,
scooby_state_406c49|8|-2 15,1,0,1,0,1,0,0,0,0,1,0,2,0,0,21,
scooby_state_406a5c|27|0 1,6,2,2,2,1,1,2,2,2,0,0,0,0,0,21,
scooby_state_406c49|16|-2 15,1,0,0,1,0,1,1,1,0,0,1,0,0,0,21,
scooby_state_406c49|58|-2 14,3,0,1,0,0,1,1,1,0,0,0,0,0,0,21,
scooby_state_406c49|3|-2 15,0,1,1,0,1,1,0,0,1,1,0,0,0,0,21,
scooby_state_406a5c|18|0 2,2,1,1,3,1,5,3,3,0,0,0,0,0,0,21,
scooby_state_406c18|50|2 6,0,0,0,1,2,1,1,0,0,1,3,3,3,0,21,
scooby_state_406c49|30|-2 13,3,0,0,0,0,0,0,1,2,1,0,0,0,1,21,
scooby_state_406930|58|33 7,1,1,1,0,0,4,0,0,0,2,0,0,2,2,20,
scooby_state_406c18|53|2 3,0,1,2,0,1,0,1,0,1,1,6,2,0,2,20,
scooby_state_406a5c|2|0 2,4,3,1,2,1,3,3,1,0,0,0,0,0,0,20,
scooby_state_406a5c|21|0 4,4,1,2,3,0,0,1,5,0,0,0,0,0,0,20,
scooby_state_406c18|51|2 5,0,0,2,0,1,0,0,0,1,1,7,2,0,1,20,
scooby_state_406c1c|56|34 14,1,0,1,0,1,0,1,1,1,0,0,0,0,0,20,
scooby_state_406a5c|8|0 5,2,2,2,3,1,0,1,2,2,0,0,0,0,0,20,
scooby_state_406a5c|11|0 0,3,1,5,2,0,4,1,2,2,0,0,0,0,0,20,
scooby_state_406c49|11|-1 14,0,0,1,1,0,0,2,0,0,0,1,0,1,0,20,
scooby_state_406a5c|53|0 0,2,0,3,6,1,2,1,4,0,0,0,0,0,0,19,
scooby_state_406a5c|16|0 1,1,3,1,4,0,3,1,3,2,0,0,0,0,0,19,
scooby_state_406a5c|4|0 5,2,2,3,2,0,1,2,2,0,0,0,0,0,0,19,
scooby_state_406a5c|30|0 4,2,0,2,3,1,3,1,3,0,0,0,0,0,0,19,
scooby_state_406c49|44|-1 11,2,0,0,1,0,2,1,1,0,1,0,0,0,0,19,
scooby_state_406c49|58|-1 10,2,0,0,1,0,1,1,1,1,0,0,2,0,0,19,
scooby_state_406c49|48|-2 13,1,0,0,0,1,0,1,0,0,1,0,0,1,1,19,
scooby_state_406a5c|17|0 1,3,0,5,1,1,1,4,2,1,0,0,0,0,0,19,
scooby_state_406c49|15|-2 14,2,0,0,0,0,1,0,0,0,0,1,0,1,0,19,
scooby_state_406930|50|33 10,1,0,2,0,1,0,1,1,0,0,1,2,0,0,19,
scooby_state_406a5c|5|0 2,4,1,0,4,0,1,4,1,1,0,0,0,0,0,18,
scooby_state_406c49|51|-1 11,0,1,1,0,2,0,1,0,1,0,1,0,0,0,18,
scooby_state_406c49|37|-1 15,0,0,0,0,1,0,0,0,0,0,0,1,1,0,18,
scooby_state_406c49|25|-2 15,1,0,0,1,0,0,0,0,0,0,1,0,0,0,18,
scooby_state_406a5c|12|0 1,2,2,1,1,1,3,1,5,1,0,0,0,0,0,18,
scooby_state_406c18|52|2 8,1,0,1,0,1,0,2,1,0,0,3,0,1,0,18,
scooby_state_406930|39|33 8,0,0,1,1,1,1,1,0,1,1,1,0,0,2,18,
scooby_state_406a5c|0|0 4,3,1,1,1,0,3,1,4,0,0,0,0,0,0,18,
scooby_state_406c49|23|-2 11,1,1,1,0,0,0,0,0,0,0,2,0,1,1,18,
scooby_state_406a5c|46|0 2,2,1,3,3,1,1,2,2,1,0,0,0,0,0,18,
scooby_state_406c1c|50|34 15,0,0,1,0,0,0,0,0,0,0,2,0,0,0,18,
scooby_state_406c49|24|-2 14,1,1,0,0,0,1,0,0,0,1,0,0,0,0,18,
scooby_state_406c49|5|-2 13,2,0,0,0,1,0,0,1,0,0,0,0,0,1,18,
scooby_state_406c49|57|-2 16,0,0,0,0,1,0,0,0,0,0,0,0,0,1,18,
scooby_state_406a5c|1|0 1,2,0,3,3,0,4,3,2,0,0,0,0,0,0,18,
scooby_state_406c49|27|-1 5,1,0,0,2,1,1,0,1,1,0,2,2,0,1,17,
scooby_state_406c49|56|-2 11,4,0,1,1,0,0,0,0,0,0,0,0,0,0,17,
scooby_state_406c49|49|-2 11,3,0,0,0,1,0,0,0,0,0,0,2,0,0,17,
scooby_state_406a5c|58|0 2,2,2,1,2,1,2,3,1,1,0,0,0,0,0,17,
scooby_state_406c18|44|2 3,0,1,1,0,0,0,0,1,2,2,1,3,0,3,17,
scooby_state_406930|63|33 5,0,0,0,0,1,1,0,1,1,0,2,2,1,3,17,
scooby_state_406a5c|40|0 5,2,2,2,3,0,2,0,1,0,0,0,0,0,0,17,
scooby_state_406a5c|14|0 2,3,1,3,1,0,3,2,1,1,0,0,0,0,0,17,
scooby_state_406c49|11|-2 10,1,1,0,0,0,0,1,1,0,0,2,0,1,0,17,
scooby_state_406c49|9|-2 6,1,1,2,2,1,1,0,1,1,0,0,1,0,0,17,
scooby_state_406c18|48|2 5,0,0,1,0,0,1,1,1,1,0,3,2,1,1,17,
scooby_state_406c49|5|-33 7,0,1,0,0,1,2,0,1,0,3,0,0,2,0,17,
scooby_state_406c49|22|-2 16,0,0,1,0,0,0,0,0,0,0,0,0,0,0,17,
scooby_state_406930|47|33 5,1,0,1,0,0,0,1,0,2,2,1,1,1,2,17,
scooby_state_406c49|59|-2 11,4,1,1,0,0,0,0,0,0,0,0,0,0,0,17,
scooby_state_406a5c|19|0 0,3,2,1,1,0,1,2,5,1,0,0,0,0,0,16,
scooby_state_406c49|42|-2 13,1,1,0,0,0,0,0,0,0,0,0,1,0,0,16,
scooby_state_406c49|17|-33 5,1,0,0,1,1,0,1,0,2,1,0,1,2,1,16,
scooby_state_406c18|46|0 15,0,0,0,0,0,0,0,1,0,0,0,0,0,0,16,
scooby_state_406c49|46|-2 12,0,0,0,0,0,0,0,1,0,0,1,1,0,1,16,
scooby_state_406a5c|6|0 3,1,1,1,0,2,1,5,0,2,0,0,0,0,0,16,
scooby_state_406c18|42|0 11,1,0,1,0,1,1,1,0,0,0,0,0,0,0,16,
scooby_state_406930|46|33 8,0,1,0,0,0,1,0,0,0,1,2,2,0,1,16,
scooby_state_406c49|40|-2 13,0,0,1,0,0,0,0,1,0,0,1,0,0,0,16,
scooby_state_406c49|26|-1 11,0,1,0,0,0,1,0,1,0,0,1,0,0,1,16,
scooby_state_406a5c|9|0 1,4,0,1,3,0,2,2,1,2,0,0,0,0,0,16,
scooby_state_406c49|29|-1 11,0,1,0,1,0,0,1,0,0,0,0,0,1,1,16,
scooby_state_406a5c|29|0 0,3,0,1,1,2,2,4,3,0,0,0,0,0,0,16,
scooby_state_406c49|29|-2 12,1,0,0,0,0,0,0,0,2,1,0,0,0,0,16,
scooby_state_406c49|45|-1 9,0,1,0,0,1,1,0,0,0,0,2,1,0,1,16,
scooby_state_406930|35|33 8,2,0,0,1,0,0,2,0,0,1,0,1,0,1,16,
scooby_state_406c49|15|-33 6,1,1,0,0,0,1,0,1,2,0,1,1,2,0,16,
scooby_state_406c49|17|-2 14,1,0,0,0,1,0,0,0,0,0,0,0,0,0,16,
scooby_state_406c49|55|-1 8,1,0,1,0,2,1,0,1,1,0,1,0,0,0,16,
scooby_state_406c49|28|-2 10,1,0,0,1,0,0,1,0,0,0,0,0,1,2,16,
scooby_state_406a5c|49|0 0,3,1,2,7,0,1,1,1,0,0,0,0,0,0,16,
scooby_state_406c49|33|-2 9,2,0,1,1,1,0,0,1,0,0,0,0,1,0,16,
scooby_state_406c49|54|-2 11,1,1,1,1,0,0,0,0,0,0,1,0,0,0,16,
scooby_state_406930|36|33 7,2,0,1,0,1,0,1,0,0,1,1,0,2,0,16,
scooby_state_406c49|54|-1 11,0,0,1,0,0,1,1,0,0,0,0,2,0,0,16,
scooby_state_406c49|33|-1 8,0,0,0,1,0,1,1,0,1,1,0,0,2,1,16,
scooby_state_406c49|4|-1 12,0,0,0,1,0,0,0,0,0,1,0,0,1,0,15,
scooby_state_406c49|12|-2 12,0,1,0,0,0,0,0,0,0,0,1,1,0,0,15,
scooby_state_406c49|0|-2 10,2,0,1,0,0,0,1,0,0,0,0,1,0,0,15,
scooby_state_406a5c|39|0 3,1,0,3,3,0,2,1,1,1,0,0,0,0,0,15,
scooby_state_406c18|41|2 7,1,0,0,0,0,2,0,0,0,1,1,2,0,1,15,
scooby_state_406a5c|51|0 3,3,2,1,2,0,0,2,1,1,0,0,0,0,0,15,
scooby_state_406c49|60|-2 9,2,0,0,0,1,0,0,0,0,0,0,1,0,2,15,
scooby_state_406c49|17|-1 7,0,1,1,1,0,0,2,0,0,2,1,0,0,0,15,
scooby_state_406c49|38|-2 12,0,0,0,1,0,0,0,0,0,0,0,1,0,1,15,
scooby_state_406c49|6|-1 10,0,1,0,0,1,0,0,1,0,0,0,1,0,1,15,
scooby_state_406c49|56|-1 10,0,0,1,0,1,0,0,0,0,2,0,0,1,0,15,
scooby_state_406c49|56|35 1,2,0,0,1,3,3,1,0,2,0,1,1,0,0,15,
scooby_state_406a5c|15|0 3,2,0,2,1,0,3,1,3,0,0,0,0,0,0,15,
scooby_state_406a5c|42|0 0,1,3,2,1,0,3,2,3,0,0,0,0,0,0,15,
scooby_state_406c49|50|-2 10,2,1,0,0,0,1,0,0,0,1,0,0,0,0,15,
scooby_state_406a5c|48|0 5,2,1,2,0,0,2,1,1,1,0,0,0,0,0,15,
scooby_state_406c18|48|0 12,0,0,1,0,0,0,2,0,0,0,0,0,0,0,15,
scooby_state_406930|33|33 6,0,0,1,1,0,1,1,1,1,1,0,0,1,1,15,
scooby_state_406a5c|41|0 0,1,0,2,5,0,4,1,2,0,0,0,0,0,0,15,
scooby_state_406c49|39|-1 6,0,0,0,1,2,0,0,1,0,0,1,2,0,2,15,
scooby_state_406a5c|63|0 1,1,2,1,1,0,3,2,2,1,0,0,0,0,0,14,
scooby_state_406c18|18|1 14,0,0,0,0,0,0,0,0,0,0,0,0,0,0,14,
scooby_state_406a5c|54|0 1,2,1,4,2,0,1,2,1,0,0,0,0,0,0,14,
scooby_state_406c49|9|-1 7,0,1,0,1,0,0,1,0,1,1,1,0,0,1,14,
scooby_state_406930|51|-2 0,2,1,1,1,1,3,0,0,0,2,0,1,1,1,14,
scooby_state_406c49|7|-2 11,2,0,0,0,0,0,0,0,0,0,0,0,0,1,14,
scooby_state_406a5c|56|0 0,3,2,1,2,1,2,1,2,0,0,0,0,0,0,14,
scooby_state_406c49|6|-2 13,0,0,0,0,0,0,0,0,0,0,0,0,0,1,14,
scooby_state_406c18|49|0 13,0,0,0,0,0,0,0,0,0,1,0,0,0,0,14,
scooby_state_406a5c|47|0 2,0,1,2,1,0,1,3,3,1,0,0,0,0,0,14,
scooby_state_406a5c|13|0 2,3,1,1,3,1,0,2,1,0,0,0,0,0,0,14,
scooby_state_406c18|43|0 12,0,1,0,0,0,0,0,0,0,0,0,0,0,1,14,
scooby_state_406c49|3|-1 7,0,0,1,1,0,2,1,2,0,0,0,0,0,0,14,
scooby_state_406a5c|33|0 1,2,0,3,1,0,2,1,2,2,0,0,0,0,0,14,
scooby_state_406a5c|60|0 2,1,4,0,1,1,0,2,3,0,0,0,0,0,0,14,
scooby_state_406c49|0|-33 7,0,0,1,0,0,0,0,0,1,1,1,0,1,2,14,
scooby_state_406930|59|33 6,1,0,2,1,0,2,0,0,0,0,2,0,0,0,14,
scooby_state_406c49|35|-2 12,1,0,0,0,0,0,0,0,0,1,0,0,0,0,14,
scooby_state_406930|38|33 4,0,1,1,2,1,0,1,2,1,0,0,0,1,0,14,
scooby_state_406c49|35|-1 10,0,0,0,0,0,0,0,0,0,0,1,1,2,0,14,
scooby_state_406a5c|57|0 3,3,0,1,2,1,0,0,3,1,0,0,0,0,0,14,
scooby_state_406c18|47|2 3,0,0,0,0,1,0,0,0,1,2,3,2,1,1,14,
scooby_state_406c18|47|0 10,1,0,1,0,0,0,0,0,0,0,0,1,0,1,14,
scooby_state_406c49|11|-33 9,0,0,0,1,1,0,1,1,1,0,0,0,0,0,14,
scooby_state_406c49|43|2 1,1,0,1,1,0,1,1,1,1,1,3,1,0,0,13,
scooby_state_406930|9|2 5,0,1,0,0,1,0,0,0,0,1,3,0,1,1,13,
scooby_state_406c49|52|-2 12,0,0,0,0,0,0,0,0,0,0,0,1,0,0,13,
scooby_state_406a5c|43|0 2,3,2,1,1,0,1,3,0,0,0,0,0,0,0,13,
scooby_state_406c18|49|2 5,0,0,0,0,0,1,1,1,1,1,1,0,1,1,13,
scooby_state_406c18|45|2 2,0,1,0,0,2,1,1,0,0,1,2,0,2,1,13,
scooby_state_406930|53|33 4,0,0,0,0,1,0,3,2,0,0,0,1,1,1,13,
scooby_state_406930|61|33 3,0,2,1,0,0,1,2,0,0,0,0,1,2,1,13,
scooby_state_406a5c|62|0 1,1,1,3,2,0,2,2,1,0,0,0,0,0,0,13,
scooby_state_406930|51|33 3,0,1,0,2,0,1,1,2,0,0,1,1,0,1,13,
scooby_state_406a5c|45|0 0,2,0,3,1,1,1,1,4,0,0,0,0,0,0,13,
scooby_state_406c49|32|-2 10,1,0,1,1,0,0,0,0,0,0,0,0,0,0,13,
scooby_state_406a5c|59|0 0,2,0,4,2,0,1,3,1,0,0,0,0,0,0,13,
scooby_state_406a58|7|0 0,0,2,1,2,0,0,0,2,0,3,0,1,2,0,13,
scooby_state_406a5c|37|0 1,2,3,2,2,0,1,1,1,0,0,0,0,0,0,13,
scooby_state_406c49|52|-1 9,0,0,0,1,1,0,0,0,0,0,1,0,0,1,13,
scooby_state_406c49|34|-1 4,0,0,1,1,0,1,1,0,3,0,0,0,1,1,13,
scooby_state_406930|41|33 6,0,1,1,1,0,1,0,0,0,0,1,0,0,2,13,
scooby_state_406930|45|33 3,0,0,1,3,1,0,0,2,2,0,0,1,0,0,13,
scooby_state_406a5c|10|0 1,2,2,3,0,0,1,2,1,1,0,0,0,0,0,13,
scooby_state_406930|57|33 4,0,1,0,1,0,1,0,2,1,2,1,0,0,0,13,
scooby_state_406c49|44|-2 7,0,1,0,0,1,0,1,0,1,0,0,1,0,0,12,
scooby_state_406a5c|23|0 1,1,2,1,4,0,2,1,0,0,0,0,0,0,0,12,
scooby_state_406c49|57|35 1,1,1,1,2,1,1,0,0,0,0,1,1,1,1,12,
scooby_state_406a5c|44|0 1,0,2,4,3,0,1,0,1,0,0,0,0,0,0,12,
scooby_state_406c49|46|-1 6,0,0,0,0,0,0,0,1,1,1,2,0,0,1,12,
scooby_state_406930|33|12 0,1,0,4,1,0,0,2,0,1,0,1,2,0,0,12,
scooby_state_406c49|28|-1 9,0,0,0,0,0,1,0,0,0,0,1,1,0,0,12,
scooby_state_406c49|40|35 2,1,0,2,0,0,0,0,0,1,1,1,1,3,0,12,
scooby_state_406a5c|26|0 2,1,0,3,1,0,3,2,0,0,0,0,0,0,0,12,
scooby_state_406c49|8|2 2,2,1,2,0,1,1,0,0,0,1,1,1,0,0,12,
scooby_state_406c49|39|-2 9,1,0,0,1,0,0,0,1,0,0,0,0,0,0,12,
scooby_state_406a5c|31|0 1,0,2,0,3,0,2,2,2,0,0,0,0,0,0,12,
scooby_state_406a5c|36|0 0,3,0,3,1,0,1,1,2,1,0,0,0,0,0,12,
scooby_state_406c49|35|3 0,0,1,2,2,0,1,0,3,0,0,0,1,1,1,12,
scooby_state_406c49|26|-2 8,1,0,1,0,0,1,0,0,0,0,1,0,0,0,12,
scooby_state_406a5c|55|0 1,0,1,2,1,0,2,4,0,1,0,0,0,0,0,12,
scooby_state_406c49|36|-2 10,1,0,0,0,1,0,0,0,0,0,0,0,0,0,12,
scooby_state_406930|34|33 5,1,1,1,0,1,1,0,0,1,0,0,1,0,0,12,
scooby_state_406c49|55|35 3,2,1,0,0,0,1,0,0,1,1,2,0,0,1,12,
scooby_state_406c49|53|-2 7,0,2,0,0,0,0,1,0,1,0,1,0,0,0,12,
scooby_state_406c49|28|2 3,0,1,0,0,0,0,0,2,0,0,5,0,1,0,12,
scooby_state_406930|42|33 1,1,0,0,0,2,2,1,0,1,1,0,0,1,2,12,
scooby_state_406c49|18|-2 10,1,0,0,0,0,0,0,0,0,0,0,0,0,1,12,
scooby_state_406930|39|2 1,0,0,0,1,2,0,1,0,0,0,5,0,0,2,12,
scooby_state_406930|56|33 4,0,1,0,0,2,0,1,0,0,1,1,1,0,1,12,
scooby_state_406930|52|33 6,1,0,0,0,0,0,1,1,0,0,1,1,0,1,12,
scooby_state_406c49|32|-1 8,0,1,0,0,0,0,0,0,0,0,2,0,0,1,12,
scooby_state_406c49|42|-1 5,0,2,0,0,1,0,1,0,0,0,1,0,1,1,12,
scooby_state_406c49|41|-1 4,0,1,0,0,1,1,1,1,0,1,0,1,1,0,12,
scooby_state_406c49|43|-2 6,0,0,0,0,1,0,0,0,0,1,2,1,0,0,11,
scooby_state_406c18|57|2 6,0,0,1,0,0,0,0,0,0,0,1,2,0,1,11,
scooby_state_406c49|48|35 0,0,2,1,1,1,0,1,1,0,2,0,0,1,1,11,
scooby_state_406c49|59|-1 7,0,0,0,0,1,1,0,0,0,1,0,0,0,1,11,
scooby_state_406c49|60|-1 7,0,0,0,0,1,0,0,0,1,0,1,0,0,1,11,
scooby_state_406c3e|63|34 0,0,2,1,1,0,0,1,0,1,1,1,1,1,1,11,
scooby_state_406c49|22|-1 6,0,0,0,1,0,0,0,1,1,0,0,1,0,1,11,
scooby_state_406930|43|33 1,0,2,0,1,1,0,0,1,1,1,1,0,2,0,11,
scooby_state_406c49|51|-2 8,0,0,0,0,0,0,0,1,1,1,0,0,0,0,11,
scooby_state_406c49|36|-1 6,0,0,0,1,0,1,0,0,0,0,1,0,1,1,11,
scooby_state_406c18|56|2 3,0,0,0,0,0,1,1,3,1,0,1,1,0,0,11,
scooby_state_406c49|6|3 0,0,0,0,0,2,1,2,2,0,1,1,1,0,1,11,
scooby_state_406930|49|33 2,1,0,1,0,0,1,2,0,0,1,1,1,0,1,11,
scooby_state_406c49|47|-2 5,2,1,0,0,0,0,0,0,0,1,0,1,1,0,11,
scooby_state_406930|39|-2 0,3,1,0,1,1,0,3,0,1,0,0,1,0,0,11,
scooby_state_406930|54|33 3,1,1,1,0,0,0,1,0,0,1,1,1,1,0,11,
scooby_state_406c49|55|-2 6,3,0,0,0,0,1,0,0,0,0,1,0,0,0,11,
scooby_state_406c49|40|-1 5,0,0,1,0,1,0,0,1,0,1,0,0,0,2,11,
scooby_state_406a5c|35|0 0,3,1,3,1,1,0,2,0,0,0,0,0,0,0,11,
scooby_state_406c49|48|-1 5,1,0,0,0,0,1,0,1,0,0,1,0,0,2,11,
scooby_state_406c49|28|17 5,0,1,3,1,0,0,0,0,0,0,0,0,1,0,11,
scooby_state_406c49|62|35 1,1,0,0,1,0,1,0,0,0,2,1,0,2,2,11,
scooby_state_406930|60|33 1,1,1,1,0,2,0,0,1,1,0,0,0,0,3,11,
scooby_state_406930|37|33 4,0,2,1,1,0,0,0,0,1,0,1,0,1,0,11,
scooby_state_406c49|13|-1 7,0,0,1,1,0,0,0,0,1,0,0,1,0,0,11,
scooby_state_406c49|25|-1 6,0,0,0,0,0,1,0,0,1,1,0,0,0,2,11,
scooby_state_406c49|39|35 1,2,0,0,0,1,0,1,1,0,2,0,1,1,0,10,
scooby_state_406c49|37|-2 8,2,0,0,0,0,0,0,0,0,0,0,0,0,0,10,
scooby_state_406930|44|37 2,0,0,1,1,1,1,0,1,0,0,1,1,1,0,10,
scooby_state_406c49|49|-1 7,0,1,0,0,0,1,0,1,0,0,0,0,0,0,10,
scooby_state_406c49|54|35 0,1,0,1,1,0,0,0,1,0,1,1,2,0,2,10,
scooby_state_406c49|47|-1 5,1,0,0,0,0,0,0,1,1,1,0,0,1,0,10,
scooby_state_406c49|23|-33 5,0,0,0,0,0,0,0,0,1,0,1,0,0,3,10,
scooby_state_406c49|52|35 4,1,0,0,0,0,0,1,0,0,1,1,0,1,1,10,
scooby_state_406c49|30|-1 4,2,1,1,0,0,0,1,1,0,0,0,0,0,0,10,
scooby_state_406c49|4|-33 4,0,0,0,0,0,1,0,0,1,0,1,2,0,1,10,
scooby_state_406c49|9|2 1,0,3,0,0,0,0,1,0,0,0,3,0,1,1,10,
scooby_state_406c18|51|0 7,0,0,0,0,0,1,0,0,1,0,1,0,0,0,10,
scooby_state_406c49|37|35 3,0,1,1,0,0,0,1,0,2,0,0,1,0,1,10,
scooby_state_406a5c|50|0 2,1,3,0,2,0,0,2,0,0,0,0,0,0,0,10,
scooby_state_406c49|1|-2 8,0,1,0,0,0,1,0,0,0,0,0,0,0,0,10,
scooby_state_406c49|20|-33 3,0,0,0,0,1,1,0,0,0,2,1,0,1,1,10,
scooby_state_406c18|54|2 3,0,0,0,0,0,0,2,1,0,0,0,2,1,1,10,
scooby_state_406c49|41|35 0,0,1,0,0,2,0,1,2,1,0,0,0,1,2,10,
scooby_state_406c49|5|-1 7,1,0,0,0,0,0,0,0,0,0,1,0,0,1,10,
scooby_state_406c18|50|0 10,0,0,0,0,0,0,0,0,0,0,0,0,0,0,10,
scooby_state_406c49|48|3 0,0,1,3,0,0,1,0,0,1,0,2,0,0,2,10,
scooby_state_406c49|31|-2 9,0,0,0,0,0,0,1,0,0,0,0,0,0,0,10,
scooby_state_406c18|19|1 10,0,0,0,0,0,0,0,0,0,0,0,0,0,0,10,
scooby_state_406a58|22|0 2,0,1,0,0,0,0,0,3,0,2,0,1,1,0,10,
scooby_state_406930|44|33 3,0,2,0,1,0,0,0,0,1,1,1,0,0,1,10,
scooby_state_406a5c|61|0 0,1,1,2,2,1,2,1,0,0,0,0,0,0,0,10,
scooby_state_406c49|23|-1 6,0,0,1,0,0,1,1,0,0,0,0,0,1,0,10,
scooby_state_406c49|41|2 2,0,0,1,0,0,0,1,1,0,0,2,2,0,1,10,
scooby_state_406c49|58|2 1,0,0,2,1,1,0,0,0,0,1,2,0,1,0,9,
scooby_state_406930|40|33 2,0,0,0,0,0,0,0,1,1,0,1,1,1,2,9,
scooby_state_406c49|15|-1 7,0,0,0,0,0,1,0,1,0,0,0,0,0,0,9,
scooby_state_406c49|20|3 2,0,0,0,0,1,1,0,1,2,0,0,1,1,0,9,
scooby_state_406930|59|-2 0,2,0,0,1,0,0,0,1,0,0,1,0,3,1,9,
scooby_state_406930|32|-2 0,6,0,1,0,0,0,0,0,1,0,0,0,0,1,9,
scooby_state_406a58|0|0 1,0,1,1,0,0,0,0,0,0,3,0,2,1,0,9,
scooby_state_406c49|58|35 1,1,0,1,1,0,2,0,0,0,0,0,0,0,3,9,
scooby_state_406930|24|2 2,0,1,0,0,0,0,1,0,0,1,2,0,2,0,9,
scooby_state_406930|57|2 2,1,0,0,1,0,1,0,1,1,0,2,0,0,0,9,
scooby_state_406c18|42|2 3,0,0,0,0,0,0,0,0,1,0,2,1,1,1,9,
scooby_state_406c18|53|0 5,0,1,0,0,1,0,1,0,0,0,0,0,0,1,9,
scooby_state_406c49|32|3 1,1,0,0,1,1,1,1,0,1,0,0,1,0,1,9,
scooby_state_406a58|8|0 0,0,2,2,0,0,0,0,1,0,1,0,1,2,0,9,
scooby_state_406c49|26|3 0,0,0,1,1,0,0,1,1,2,0,1,1,0,1,9,
scooby_state_406c49|24|-3 3,1,3,0,0,1,0,0,0,0,0,1,0,0,0,9,
scooby_state_406c49|49|2 2,0,0,0,1,0,1,0,0,0,1,4,0,0,0,9,
scooby_state_406c49|17|3 0,1,0,0,3,1,0,0,1,0,0,1,1,0,1,9,
scooby_state_406c49|53|-1 6,0,0,0,0,0,0,2,1,0,0,0,0,0,0,9,
scooby_state_406c18|55|2 5,0,0,0,1,0,0,0,0,0,0,2,0,0,1,9,
scooby_state_406c49|47|2 2,1,0,0,0,1,0,0,1,0,0,3,1,0,0,9,
scooby_state_406c49|53|17 2,1,1,0,0,0,1,0,2,0,0,1,0,0,1,9,
scooby_state_406c18|48|3 3,1,0,2,0,2,0,0,0,0,0,0,0,0,1,9,
scooby_state_406c49|12|-1 5,1,0,0,1,0,0,1,0,0,0,0,1,0,0,9,
scooby_state_406c49|21|-1 6,0,0,0,0,1,0,0,0,0,0,0,1,1,0,9,
scooby_state_406c49|36|35 0,0,0,0,1,1,1,2,0,1,0,1,1,1,0,9,
scooby_state_406c49|26|-33 5,0,0,1,0,0,0,1,0,0,0,1,0,0,1,9,
scooby_state_406c49|63|35 0,2,0,0,0,1,0,0,0,2,0,2,1,0,1,9,
scooby_state_406a58|57|0 2,0,0,1,1,0,0,0,4,0,1,0,0,0,0,9,
scooby_state_406c49|51|2 1,1,2,0,0,1,0,0,0,0,0,2,0,0,2,9,
scooby_state_406c49|48|39 2,1,0,2,1,0,0,0,0,0,0,0,2,0,0,8,
scooby_state_406c49|1|-32 0,0,0,1,1,0,0,2,0,0,0,2,1,0,1,8,
scooby_state_406c49|2|2 1,0,0,0,0,1,0,0,0,0,0,5,0,0,1,8,
scooby_state_406a58|28|0 0,0,4,0,1,0,0,0,2,0,0,0,0,1,0,8,
scooby_state_406c49|9|3 0,0,0,0,0,1,1,2,0,0,1,0,0,1,2,8,
scooby_state_406c49|63|2 2,1,0,0,0,0,0,0,0,0,0,3,0,1,1,8,
scooby_state_406c49|49|17 5,1,0,0,0,0,0,0,1,1,0,0,0,0,0,8,
scooby_state_406c49|19|-33 3,0,1,0,1,0,0,0,0,0,0,1,1,0,1,8,
scooby_state_406c49|40|17 2,1,1,0,0,0,1,0,0,0,0,1,1,1,0,8,
scooby_state_406c49|44|17 3,0,0,1,0,1,0,1,1,0,0,0,0,0,1,8,
scooby_state_406c49|59|17 4,2,0,0,0,1,0,0,0,0,0,0,1,0,0,8,
scooby_state_406c49|50|2 0,0,2,0,1,0,0,0,0,1,1,2,0,1,0,8,
scooby_state_406c49|38|-1 4,0,0,0,0,0,0,0,0,0,1,1,0,1,1,8,
scooby_state_406c49|56|-3 1,1,4,0,0,0,0,1,0,0,0,0,1,0,0,8,
scooby_state_406a5c|34|34 3,1,0,1,0,0,1,1,1,0,0,0,0,0,0,8,
scooby_state_406c49|55|2 3,0,0,1,0,1,0,0,0,0,0,2,0,0,1,8,
scooby_state_406a58|27|0 0,0,2,0,1,0,0,0,2,0,1,0,0,1,1,8,
scooby_state_406930|14|-2 0,3,0,1,1,0,1,0,0,0,0,0,1,1,0,8,
scooby_state_406c49|45|2 2,0,0,0,0,0,1,0,0,0,2,2,1,0,0,8,
scooby_state_406c49|7|3 1,1,0,1,0,0,0,0,0,1,2,0,1,1,0,8,
scooby_state_406a58|55|0 2,0,0,1,2,0,0,0,0,1,0,0,1,1,0,8,
scooby_state_406a58|48|0 1,0,0,2,2,0,0,0,0,0,0,0,2,1,0,8,
scooby_state_406c49|14|-1 4,1,0,0,0,0,0,0,0,0,1,0,1,1,0,8,
scooby_state_406930|20|-2 0,2,0,0,1,0,2,0,2,1,0,0,0,0,0,8,
scooby_state_406c49|15|3 0,2,0,1,0,0,1,1,0,0,1,0,0,2,0,8,
scooby_state_406c49|10|-33 6,0,0,0,1,0,0,0,0,0,0,1,0,0,0,8,
scooby_state_406c49|59|2 1,0,1,0,0,0,0,1,1,0,0,2,0,2,0,8,
scooby_state_406a58|6|0 4,0,0,0,0,0,0,0,2,0,0,1,0,1,0,8,
scooby_state_406c49|24|-1 3,0,0,1,0,1,0,0,0,1,2,0,0,0,0,8,
scooby_state_406c49|8|-1 3,1,0,0,0,0,1,0,1,1,0,0,0,0,1,8,
scooby_state_406c49|8|-33 2,0,0,0,0,1,0,2,0,0,1,1,0,0,1,8,
scooby_state_406c49|17|2 1,0,0,0,0,0,1,1,0,0,0,4,0,0,1,8,
scooby_state_406c49|46|35 0,0,2,2,0,0,0,0,0,0,0,2,1,1,0,8,
scooby_state_406c49|50|35 0,0,1,0,0,0,1,2,0,0,0,0,2,0,2,8,
scooby_state_406c49|47|17 4,1,0,0,0,2,0,0,0,0,0,0,0,0,1,8,
scooby_state_406c49|62|2 2,0,0,0,1,1,1,1,0,0,0,2,0,0,0,8,
scooby_state_406a58|8|1 0,0,2,1,1,0,0,0,1,0,3,0,0,0,0,8,
scooby_state_406c49|46|2 0,0,0,0,1,0,0,0,0,0,0,6,0,0,1,8,
scooby_state_406c49|29|2 0,2,0,0,0,0,0,1,0,1,0,4,0,0,0,8,
scooby_state_406c49|46|3 1,0,1,0,1,1,0,0,0,1,0,1,0,0,2,8,
scooby_state_406c49|25|2 3,1,0,0,1,0,0,0,0,1,0,1,1,0,0,8,
scooby_state_406930|52|1 0,0,0,2,0,0,0,1,1,0,0,1,0,3,0,8,
scooby_state_406c49|38|35 0,0,0,2,1,1,1,0,0,0,1,0,0,1,1,8,
scooby_state_406a58|12|0 0,0,1,4,0,0,0,0,2,0,0,0,1,0,0,8,
scooby_state_406930|28|1 0,0,0,0,0,0,1,1,1,0,1,2,0,1,1,8,
scooby_state_406c49|44|35 0,1,0,1,1,0,1,0,0,0,2,1,0,0,1,8,
scooby_state_406930|23|2 3,0,0,1,0,0,0,1,0,0,1,1,0,1,0,8,
scooby_state_406930|4|2 2,1,0,1,0,0,0,0,1,0,1,2,0,0,0,8,
scooby_state_406c49|34|3 1,0,1,0,0,0,0,1,1,0,1,0,1,2,0,8,
scooby_state_406a5c|52|0 2,1,1,0,0,0,1,0,2,1,0,0,0,0,0,8,
scooby_state_406930|58|2 0,0,0,1,1,0,0,1,0,1,0,3,0,0,1,8,
scooby_state_406c49|14|-33 3,1,0,0,0,0,2,0,0,0,0,1,0,1,0,8,
scooby_state_406c49|7|-1 2,0,0,1,0,0,0,0,1,1,0,0,0,1,2,8,
scooby_state_406c49|22|-3 1,0,1,0,0,0,0,1,0,1,0,1,0,2,1,8,
scooby_state_406a58|33|0 1,0,3,0,1,0,0,0,0,0,0,0,0,1,2,8,
scooby_state_406c49|19|3 1,0,1,1,1,1,0,1,0,0,1,0,0,1,0,8,
scooby_state_406930|60|2 1,0,0,0,0,0,1,0,0,0,1,4,0,1,0,8,
[...]
scooby_state_406c49|48|-5 0,0,1,0,0,0,0,0,0,0,0,0,0,0,0,1,
scooby_state_406c49|32|-27 0,0,0,0,0,0,0,0,0,0,0,0,0,1,0,1,
scooby_state_406c1c|25|-4 1,0,0,0,0,0,0,0,0,0,0,0,0,0,0,1,
scooby_state_406c49|46|42 0,0,0,0,0,0,0,0,0,0,1,0,0,0,0,1,
scooby_state_406930|6|-16 0,0,0,0,1,0,0,0,0,0,0,0,0,0,0,1,
scooby_state_428b42|45|1 1,0,0,0,0,0,0,0,0,0,0,0,0,0,0,1,
scooby_state_406c49|33|32 1,0,0,0,0,0,0,0,0,0,0,0,0,0,0,1,
scooby_state_406c49|8|-46 0,0,0,0,0,0,0,0,0,0,0,1,0,0,0,1,
scooby_state_406c49|54|-8 0,0,0,0,0,0,0,0,0,0,1,0,0,0,0,1,
scooby_state_406c1c|37|22 0,0,0,0,0,0,0,0,0,0,0,0,0,0,1,1,
scooby_state_406c49|44|33 0,0,0,0,0,0,0,0,0,0,0,1,0,0,0,1,
scooby_state_406c49|9|-39 0,0,0,0,0,0,0,0,0,1,0,0,0,0,0,1,
scooby_state_406930|63|12 0,0,0,0,0,0,0,0,0,0,0,0,0,0,1,1,
scooby_state_406c49|59|55 1,0,0,0,0,0,0,0,0,0,0,0,0,0,0,1,
scooby_state_406c49|43|-3 0,0,1,0,0,0,0,0,0,0,0,0,0,0,0,1,
scooby_state_406930|61|25 0,0,0,0,0,0,0,0,1,0,0,0,0,0,0,1,
scooby_state_406c49|36|6 1,0,0,0,0,0,0,0,0,0,0,0,0,0,0,1,
scooby_state_406c49|33|5 0,0,0,1,0,0,0,0,0,0,0,0,0,0,0,1,
scooby_state_406c49|63|22 1,0,0,0,0,0,0,0,0,0,0,0,0,0,0,1,
scooby_state_406c49|7|-39 1,0,0,0,0,0,0,0,0,0,0,0,0,0,0,1,
scooby_state_406c49|44|26 0,0,0,0,0,0,1,0,0,0,0,0,0,0,0,1,
scooby_state_406c1c|25|-2 0,0,0,0,0,0,0,0,0,0,0,0,0,0,1,1,
scooby_state_406c49|4|-53 0,0,0,0,0,1,0,0,0,0,0,0,0,0,0,1,
scooby_state_406930|14|-23 1,0,0,0,0,0,0,0,0,0,0,0,0,0,0,1,
scooby_state_406c1c|27|26 0,0,0,0,0,0,0,0,0,0,0,0,0,1,0,1,
scooby_state_406c1c|46|44 0,0,0,1,0,0,0,0,0,0,0,0,0,0,0,1,
scooby_state_406c1c|44|-3 1,0,0,0,0,0,0,0,0,0,0,0,0,0,0,1,
scooby_state_406c49|43|-4 0,0,0,0,0,0,0,0,1,0,0,0,0,0,0,1,
scooby_state_406c1c|42|-17 0,1,0,0,0,0,0,0,0,0,0,0,0,0,0,1,
scooby_state_406c49|32|17 0,0,0,0,1,0,0,0,0,0,0,0,0,0,0,1,
scooby_state_406c49|5|-39 0,0,0,0,0,0,0,0,1,0,0,0,0,0,0,1,
scooby_state_406c1c|23|14 0,0,0,0,0,0,0,0,0,0,0,1,0,0,0,1,
scooby_state_406c49|23|-8 1,0,0,0,0,0,0,0,0,0,0,0,0,0,0,1,
scooby_state_406930|20|-4 0,0,1,0,0,0,0,0,0,0,0,0,0,0,0,1,
scooby_state_406c49|11|-40 0,0,0,0,0,1,0,0,0,0,0,0,0,0,0,1,
scooby_state_406c49|0|-50 0,0,0,0,0,1,0,0,0,0,0,0,0,0,0,1,
scooby_state_406a58|25|-31 0,0,0,0,0,0,0,0,0,0,0,0,1,0,0,1,
scooby_state_406c49|63|39 0,0,0,0,0,0,0,0,0,0,0,0,0,1,0,1,
scooby_state_406c49|4|-43 0,0,0,0,0,0,0,0,1,0,0,0,0,0,0,1,
scooby_state_406c49|28|-16 1,0,0,0,0,0,0,0,0,0,0,0,0,0,0,1,
scooby_state_406c49|47|31 0,0,1,0,0,0,0,0,0,0,0,0,0,0,0,1,
scooby_state_406930|22|-11 0,0,0,0,0,1,0,0,0,0,0,0,0,0,0,1,
scooby_state_406930|55|28 0,0,0,0,0,0,0,0,1,0,0,0,0,0,0,1,
scooby_state_406c18|41|3 1,0,0,0,0,0,0,0,0,0,0,0,0,0,0,1,
scooby_state_406c49|16|6 0,0,0,0,0,0,0,0,0,0,0,0,1,0,0,1,
scooby_state_40238a|0|-1 1,0,0,0,0,0,0,0,0,0,0,0,0,0,0,1,
scooby_state_406c49|14|10 0,0,0,0,0,0,0,0,0,0,0,1,0,0,0,1,
scooby_state_406930|10|-21 0,0,0,0,0,0,0,0,0,1,0,0,0,0,0,1,
scooby_state_406930|12|-39 0,0,0,0,0,0,0,0,1,0,0,0,0,0,0,1,
scooby_state_406c49|51|-6 1,0,0,0,0,0,0,0,0,0,0,0,0,0,0,1,
scooby_state_406c49|9|-24 0,0,0,0,0,0,1,0,0,0,0,0,0,0,0,1,
scooby_state_406c49|12|-4 0,0,1,0,0,0,0,0,0,0,0,0,0,0,0,1,
scooby_state_406c1c|43|28 0,0,1,0,0,0,0,0,0,0,0,0,0,0,0,1,
scooby_state_406930|8|-12 0,0,0,0,0,0,0,0,0,0,0,0,1,0,0,1,
scooby_state_406c49|1|-42 0,0,0,0,1,0,0,0,0,0,0,0,0,0,0,1,
scooby_state_406c49|8|-21 0,0,0,0,0,0,0,0,0,0,0,1,0,0,0,1,
scooby_state_406c49|29|-31 0,0,0,0,0,0,0,0,1,0,0,0,0,0,0,1,
scooby_state_406c1c|18|-2 0,1,0,0,0,0,0,0,0,0,0,0,0,0,0,1,
scooby_state_406930|61|29 0,0,0,0,0,0,0,0,0,0,0,0,1,0,0,1,
scooby_state_406930|42|-13 0,0,0,0,0,0,0,0,0,0,0,1,0,0,0,1,
scooby_state_406930|1|-6 0,0,0,0,0,0,0,0,0,0,0,0,0,0,1,1,
scooby_state_406c49|17|9 0,0,0,0,0,0,0,0,0,0,0,0,0,1,0,1,
scooby_state_406c1c|27|16 0,0,0,0,0,0,1,0,0,0,0,0,0,0,0,1,
scooby_state_406c1c|18|2 0,0,0,0,0,0,0,0,0,0,0,1,0,0,0,1,
scooby_state_406930|51|20 0,0,0,0,0,0,0,0,0,0,1,0,0,0,0,1,
scooby_state_406c49|20|4 0,0,0,0,0,0,0,0,0,0,0,0,1,0,0,1,
scooby_state_406930|45|-3 0,0,1,0,0,0,0,0,0,0,0,0,0,0,0,1,
scooby_state_406c49|29|16 0,0,0,0,0,0,1,0,0,0,0,0,0,0,0,1,
scooby_state_406930|9|-23 1,0,0,0,0,0,0,0,0,0,0,0,0,0,0,1,
scooby_state_406c49|9|-23 0,0,1,0,0,0,0,0,0,0,0,0,0,0,0,1,
scooby_state_406c49|37|-4 1,0,0,0,0,0,0,0,0,0,0,0,0,0,0,1,
scooby_state_406c49|55|31 0,0,0,0,0,0,0,0,0,0,0,1,0,0,0,1,
scooby_state_406a5c|33|12 0,0,0,1,0,0,0,0,0,0,0,0,0,0,0,1,
scooby_state_406c49|38|14 0,0,0,0,1,0,0,0,0,0,0,0,0,0,0,1,
scooby_state_406930|27|3 0,0,0,0,0,0,0,0,0,0,1,0,0,0,0,1,
scooby_state_406c49|3|-58 0,0,0,0,0,0,0,0,0,0,0,1,0,0,0,1,
scooby_state_406c49|19|-22 0,0,0,0,1,0,0,0,0,0,0,0,0,0,0,1,
scooby_state_406c49|49|31 0,0,0,0,0,0,0,0,0,0,1,0,0,0,0,1,
scooby_state_406a2f|39|1 0,0,0,0,0,0,0,1,0,0,0,0,0,0,0,1,
scooby_state_406c1c|25|-20 0,0,0,0,0,0,0,1,0,0,0,0,0,0,0,1,
scooby_state_406930|58|46 0,0,0,0,0,0,0,0,0,1,0,0,0,0,0,1,
scooby_state_406930|48|42 1,0,0,0,0,0,0,0,0,0,0,0,0,0,0,1,
scooby_state_406c49|34|14 0,1,0,0,0,0,0,0,0,0,0,0,0,0,0,1,
scooby_state_406930|61|23 0,0,0,0,1,0,0,0,0,0,0,0,0,0,0,1,
scooby_state_406c49|10|-5 0,0,0,0,0,0,0,0,0,0,1,0,0,0,0,1,
scooby_state_406930|47|22 0,0,0,0,0,0,0,1,0,0,0,0,0,0,0,1,
scooby_state_406c49|36|-10 0,0,0,0,0,0,0,0,0,0,0,0,0,0,1,1,
scooby_state_406c49|46|-16 0,0,0,0,0,0,0,1,0,0,0,0,0,0,0,1,
scooby_state_406c1c|52|5 0,0,0,0,0,0,0,0,0,0,0,1,0,0,0,1,
scooby_state_406c49|14|-5 0,0,1,0,0,0,0,0,0,0,0,0,0,0,0,1,
scooby_state_406c49|34|-25 0,0,0,0,0,0,0,0,0,0,0,1,0,0,0,1,
scooby_state_406c49|28|6 0,0,1,0,0,0,0,0,0,0,0,0,0,0,0,1,
scooby_state_406c49|47|-14 0,0,0,0,0,0,0,0,0,0,0,1,0,0,0,1,
scooby_state_406c1c|61|47 0,0,0,0,0,0,0,1,0,0,0,0,0,0,0,1,
scooby_state_402350|13|0 0,0,0,1,0,0,0,0,0,0,0,0,0,0,0,1,
scooby_state_406c49|51|32 0,0,1,0,0,0,0,0,0,0,0,0,0,0,0,1,
scooby_state_406930|46|44 0,0,0,0,0,0,0,0,0,0,0,0,0,1,0,1,
scooby_state_406930|40|19 0,0,0,0,0,0,0,0,0,0,0,1,0,0,0,1,
scooby_state_406c49|38|38 1,0,0,0,0,0,0,0,0,0,0,0,0,0,0,1,
scooby_state_406c49|30|-28 0,0,0,0,0,0,1,0,0,0,0,0,0,0,0,1,
scooby_state_406c1c|21|-17 1,0,0,0,0,0,0,0,0,0,0,0,0,0,0,1,
scooby_state_406a2f|62|1 0,0,0,0,0,0,1,0,0,0,0,0,0,0,0,1,
scooby_state_406930|21|-17 0,0,1,0,0,0,0,0,0,0,0,0,0,0,0,1,
scooby_state_406c1c|46|-17 0,0,0,0,0,0,0,0,0,0,0,1,0,0,0,1,
scooby_state_406c1c|48|17 0,0,0,0,0,0,0,0,0,0,0,0,0,1,0,1,
scooby_state_406c49|8|-5 0,0,0,0,0,0,0,0,0,0,1,0,0,0,0,1,
scooby_state_406c49|17|-18 0,0,0,0,0,0,0,0,0,1,0,0,0,0,0,1,
scooby_state_406c49|33|-25 0,0,0,0,0,0,0,0,0,0,0,0,0,1,0,1,
scooby_state_406c49|37|-11 1,0,0,0,0,0,0,0,0,0,0,0,0,0,0,1,
scooby_state_406930|50|-8 0,1,0,0,0,0,0,0,0,0,0,0,0,0,0,1,
scooby_state_406c49|63|32 0,0,0,0,0,0,0,0,0,0,1,0,0,0,0,1,
scooby_state_406c1c|14|2 0,0,0,0,0,0,0,0,0,0,0,1,0,0,0,1,
scooby_state_406c49|58|24 0,0,0,0,0,0,0,0,0,0,0,1,0,0,0,1,
scooby_state_406c1c|54|-1 0,0,0,0,0,0,0,0,0,0,0,1,0,0,0,1,
scooby_state_406c1c|44|-7 0,0,0,0,0,0,1,0,0,0,0,0,0,0,0,1,
scooby_state_406c1c|50|9 0,0,0,0,0,0,0,0,0,0,0,0,0,0,1,1,
scooby_state_406c1c|18|8 0,0,0,0,0,1,0,0,0,0,0,0,0,0,0,1,
scooby_state_406930|13|-44 0,0,1,0,0,0,0,0,0,0,0,0,0,0,0,1,
scooby_state_406c49|41|36 0,0,0,0,0,0,0,0,0,0,0,1,0,0,0,1,
scooby_state_406c1c|32|26 0,0,0,0,0,0,0,0,0,0,0,0,1,0,0,1,
scooby_state_406c1c|37|2 0,0,0,0,0,1,0,0,0,0,0,0,0,0,0,1,
scooby_state_406c1c|39|25 0,0,0,0,0,1,0,0,0,0,0,0,0,0,0,1,
scooby_state_406c49|3|-49 1,0,0,0,0,0,0,0,0,0,0,0,0,0,0,1,
scooby_state_406c49|59|26 0,0,0,0,0,0,0,0,0,0,0,0,0,0,1,1,
scooby_state_406c49|37|21 0,0,0,0,0,0,0,0,0,0,0,0,0,1,0,1,
scooby_state_406c49|32|13 0,0,0,0,0,0,0,0,0,0,0,0,1,0,0,1,
scooby_state_406c49|35|25 0,1,0,0,0,0,0,0,0,0,0,0,0,0,0,1,
scooby_state_406c49|9|-6 0,1,0,0,0,0,0,0,0,0,0,0,0,0,0,1,
scooby_state_406930|32|11 0,0,0,0,0,0,0,1,0,0,0,0,0,0,0,1,
scooby_state_406c49|37|8 0,0,0,0,0,0,0,0,0,0,0,0,0,1,0,1,
scooby_state_406c1c|21|-31 0,0,0,0,0,1,0,0,0,0,0,0,0,0,0,1,
scooby_state_406930|42|-7 0,0,1,0,0,0,0,0,0,0,0,0,0,0,0,1,
scooby_state_406930|52|39 1,0,0,0,0,0,0,0,0,0,0,0,0,0,0,1,
scooby_state_406c49|37|-26 1,0,0,0,0,0,0,0,0,0,0,0,0,0,0,1,
scooby_state_406930|7|-50 0,0,0,0,0,0,0,0,0,1,0,0,0,0,0,1,
scooby_state_406a58|61|1 1,0,0,0,0,0,0,0,0,0,0,0,0,0,0,1,
scooby_state_429358|37|1 1,0,0,0,0,0,0,0,0,0,0,0,0,0,0,1,
scooby_state_406c1c|60|23 0,0,0,0,1,0,0,0,0,0,0,0,0,0,0,1,
scooby_state_406c49|48|10 0,0,0,0,0,0,0,0,0,0,0,0,0,1,0,1,
scooby_state_406c1c|48|13 0,0,1,0,0,0,0,0,0,0,0,0,0,0,0,1,
scooby_state_406c1c|32|12 0,0,0,0,0,0,0,0,0,0,0,1,0,0,0,1,
scooby_state_406c49|38|-21 0,0,0,0,0,0,0,0,0,1,0,0,0,0,0,1,
scooby_state_406c49|54|6 0,0,0,0,0,0,0,0,1,0,0,0,0,0,0,1,
scooby_state_406c1c|47|12 0,0,0,0,0,0,1,0,0,0,0,0,0,0,0,1,
scooby_state_406c49|26|-25 0,0,0,0,1,0,0,0,0,0,0,0,0,0,0,1,
scooby_state_406c49|58|37 0,0,0,1,0,0,0,0,0,0,0,0,0,0,0,1,
scooby_state_406930|47|21 0,0,0,0,0,0,0,0,0,0,0,0,1,0,0,1,
scooby_state_406c49|19|-11 0,0,0,0,1,0,0,0,0,0,0,0,0,0,0,1,
scooby_state_406930|38|-16 0,1,0,0,0,0,0,0,0,0,0,0,0,0,0,1,
scooby_state_406c49|50|22 0,0,0,0,0,0,1,0,0,0,0,0,0,0,0,1,
scooby_state_406c49|25|6 0,0,0,0,0,0,0,0,1,0,0,0,0,0,0,1,
scooby_state_406930|27|-18 0,0,0,0,0,0,0,1,0,0,0,0,0,0,0,1,
scooby_state_406c49|30|23 0,0,0,0,0,0,0,0,0,0,0,0,0,1,0,1,
scooby_state_406c49|30|25 0,0,0,0,0,0,0,0,0,1,0,0,0,0,0,1,
scooby_state_406c1c|37|-24 0,0,0,0,0,0,0,0,0,0,0,0,0,1,0,1,
scooby_state_406c49|57|21 1,0,0,0,0,0,0,0,0,0,0,0,0,0,0,1,
scooby_state_406c49|48|31 0,0,0,0,0,0,0,0,0,0,0,0,0,1,0,1,
scooby_state_406c49|49|8 0,0,1,0,0,0,0,0,0,0,0,0,0,0,0,1,
scooby_state_406c1c|42|-2 0,0,0,0,0,0,0,0,0,0,0,0,0,0,1,1,
scooby_state_406c49|12|-17 0,1,0,0,0,0,0,0,0,0,0,0,0,0,0,1,
scooby_state_406c49|40|32 0,0,0,1,0,0,0,0,0,0,0,0,0,0,0,1,
scooby_state_406c49|22|-30 0,1,0,0,0,0,0,0,0,0,0,0,0,0,0,1,
scooby_state_406930|19|-3 0,0,1,0,0,0,0,0,0,0,0,0,0,0,0,1,
scooby_state_406a5c|28|13 1,0,0,0,0,0,0,0,0,0,0,0,0,0,0,1,
scooby_state_406c49|51|15 0,0,0,0,0,0,0,0,0,1,0,0,0,0,0,1,
scooby_state_406c49|59|8 0,0,0,0,0,0,0,0,1,0,0,0,0,0,0,1,
scooby_state_406c1c|4|3 0,0,0,0,0,0,0,0,0,0,0,0,0,1,0,1,
scooby_state_406930|45|13 0,0,0,0,0,0,0,0,0,0,1,0,0,0,0,1,
scooby_state_406930|35|-2 0,1,0,0,0,0,0,0,0,0,0,0,0,0,0,1,
scooby_state_406930|41|5 0,0,0,0,0,0,0,1,0,0,0,0,0,0,0,1,
scooby_state_406c49|19|-9 0,0,0,0,0,0,1,0,0,0,0,0,0,0,0,1,
scooby_state_406930|1|-40 0,0,0,0,0,0,0,0,0,0,0,0,1,0,0,1,
scooby_state_406930|17|1 0,0,0,0,0,0,0,0,0,0,0,0,0,1,0,1,
scooby_state_406930|7|2 0,0,0,0,0,0,0,0,0,0,0,1,0,0,0,1,
scooby_state_406c1c|55|28 0,0,0,0,0,0,0,0,1,0,0,0,0,0,0,1,
scooby_state_406930|57|25 0,0,0,0,0,0,0,0,0,0,0,1,0,0,0,1,
scooby_state_406c49|43|11 0,0,0,0,0,0,0,0,0,0,0,0,1,0,0,1,
scooby_state_42c0c7|3|1 1,0,0,0,0,0,0,0,0,0,0,0,0,0,0,1,
scooby_state_406930|58|24 0,0,0,0,0,0,1,0,0,0,0,0,0,0,0,1,
scooby_state_406c49|14|12 1,0,0,0,0,0,0,0,0,0,0,0,0,0,0,1,
scooby_state_406c1c|6|-41 0,0,0,0,0,0,0,0,0,0,0,0,1,0,0,1,
scooby_state_406c1c|55|17 1,0,0,0,0,0,0,0,0,0,0,0,0,0,0,1,
scooby_state_406930|3|-7 0,0,0,0,0,1,0,0,0,0,0,0,0,0,0,1,
scooby_state_406930|31|-5 0,0,0,0,0,0,0,0,0,0,0,0,0,1,0,1,
scooby_state_406c49|9|-5 0,1,0,0,0,0,0,0,0,0,0,0,0,0,0,1,
scooby_state_406c49|26|16 1,0,0,0,0,0,0,0,0,0,0,0,0,0,0,1,
scooby_state_406c1c|44|-2 1,0,0,0,0,0,0,0,0,0,0,0,0,0,0,1,
scooby_state_406930|22|20 0,0,0,0,0,1,0,0,0,0,0,0,0,0,0,1,
scooby_state_406c49|44|37 0,0,0,0,0,0,0,0,0,0,0,0,1,0,0,1,
scooby_state_406930|46|31 0,0,0,1,0,0,0,0,0,0,0,0,0,0,0,1,
scooby_state_406c49|34|21 0,0,0,0,0,0,1,0,0,0,0,0,0,0,0,1,
scooby_state_406c49|57|38 0,0,0,0,0,0,0,0,0,0,0,0,0,1,0,1,
scooby_state_406930|7|7 0,0,0,0,0,0,0,0,0,0,0,0,0,1,0,1,
scooby_state_406c49|55|49 1,0,0,0,0,0,0,0,0,0,0,0,0,0,0,1,
scooby_state_406c1c|62|27 1,0,0,0,0,0,0,0,0,0,0,0,0,0,0,1,
scooby_state_406930|2|-20 0,0,0,0,0,0,0,0,0,0,0,0,0,1,0,1,
scooby_state_406930|38|-7 0,1,0,0,0,0,0,0,0,0,0,0,0,0,0,1,
scooby_state_406c1c|63|4 0,0,0,0,0,0,0,0,0,0,0,1,0,0,0,1,
scooby_state_406c1c|60|27 1,0,0,0,0,0,0,0,0,0,0,0,0,0,0,1,
scooby_state_406c1c|27|-16 0,0,0,0,0,0,0,0,0,0,0,0,0,0,1,1,
scooby_state_406c49|50|43 0,0,1,0,0,0,0,0,0,0,0,0,0,0,0,1,
scooby_state_406930|56|9 0,0,0,0,0,0,0,0,0,1,0,0,0,0,0,1,
scooby_state_406c1c|50|-13 0,0,0,0,0,0,0,1,0,0,0,0,0,0,0,1,
scooby_state_406930|43|13 0,0,0,0,0,0,0,0,0,0,0,1,0,0,0,1,
scooby_state_406c49|27|-6 1,0,0,0,0,0,0,0,0,0,0,0,0,0,0,1,
scooby_state_406c1c|53|-4 1,0,0,0,0,0,0,0,0,0,0,0,0,0,0,1,
scooby_state_406c49|12|-20 1,0,0,0,0,0,0,0,0,0,0,0,0,0,0,1,
scooby_state_406c49|35|-26 0,0,0,0,0,0,0,0,0,0,0,0,0,0,1,1,
scooby_state_406930|59|-1 0,0,0,0,0,0,1,0,0,0,0,0,0,0,0,1,
scooby_state_406930|8|1 0,0,0,0,0,0,0,0,0,0,0,1,0,0,0,1,
scooby_state_406930|30|-24 0,0,0,0,0,0,0,0,0,0,0,0,0,0,1,1,
scooby_state_406a5c|26|24 0,0,0,0,0,0,0,1,0,0,0,0,0,0,0,1,
scooby_state_406c49|33|-7 0,0,1,0,0,0,0,0,0,0,0,0,0,0,0,1,
scooby_state_406c1c|12|3 0,0,0,0,0,0,0,0,1,0,0,0,0,0,0,1,
scooby_state_406930|36|24 0,0,0,1,0,0,0,0,0,0,0,0,0,0,0,1,
scooby_state_406c1c|56|10 0,0,0,0,1,0,0,0,0,0,0,0,0,0,0,1,
scooby_state_406c1c|31|17 1,0,0,0,0,0,0,0,0,0,0,0,0,0,0,1,

scooby_action_0_deg_dist 0,1835,0,0,0,0,0,0,0,0,0,0,0,0,0,0,
scooby_action_-6_deg_dist 0,1292,5,0,0,0,0,0,0,0,0,0,0,0,0,0,
scooby_action_4_deg_dist 0,1506,8,0,4,0,0,0,0,0,0,0,0,0,0,0,
scooby_action_1_deg_dist 0,318220,2494,0,4141,0,24983,0,0,0,0,0,0,0,0,0,
scooby_action_30_deg_dist 0,1190,0,0,0,0,0,0,0,0,0,0,0,0,0,0,
scooby_action_5_deg_dist 0,1519,8,0,9,0,1,0,0,0,0,0,0,0,0,0,
scooby_action_10_deg_dist 0,1417,0,0,0,0,0,0,0,0,0,0,0,0,0,0,
scooby_action_3_deg_dist 0,1682,18,0,13,0,6,0,0,0,0,0,0,0,0,0,
scooby_action_32_deg_dist 0,1233,1,0,0,0,0,0,0,0,0,0,0,0,0,0,
scooby_action_11_deg_dist 0,1248,3,0,2,0,0,0,0,0,0,0,0,0,0,0,
scooby_action_12_deg_dist 0,1373,2,0,2,0,0,0,0,0,0,0,0,0,0,0,
scooby_action_22_deg_dist 0,1338,0,0,0,0,0,0,0,0,0,0,0,0,0,0,
scooby_action_23_deg_dist 0,1388,1,0,0,0,0,0,0,0,0,0,0,0,0,0,
scooby_action_-1_deg_dist 0,1797,2,0,0,0,0,0,0,0,0,0,0,0,0,0,
scooby_action_-3_deg_dist 0,1385,4,0,1,0,0,0,0,0,0,0,0,0,0,0,

scooby_track_called 370131
scooby_track_same_address 1450
scooby_track_evict 368425

scooby_reward_demand_called 370131
scooby_reward_demand_pt_not_found 297830
scooby_reward_demand_pt_found 72301
scooby_reward_demand_pt_found_total 72301
scooby_reward_demand_has_reward 10
scooby_reward_train_called 287330
scooby_reward_assign_reward_called 368463
scooby_reward_no_pref 1835
scooby_reward_incorrect 285495
scooby_reward_correct_untimely 55323
scooby_reward_correct_timely 16968
scooby_reward_out_of_bounds 8842
scooby_reward_tracker_hit 0

scooby_reward_none_low_bw 1835
scooby_reward_none_high_bw 0
scooby_reward_incorrect_low_bw 285495
scooby_reward_incorrect_high_bw 0
scooby_reward_correct_untimely_low_bw 55323
scooby_reward_correct_untimely_high_bw 0
scooby_reward_correct_timely_low_bw 16968
scooby_reward_correct_timely_high_bw 0
scooby_reward_out_of_bounds_low_bw 8842
scooby_reward_out_of_bounds_high_bw 0
scooby_reward_tracker_hit_low_bw 0
scooby_reward_tracker_hit_high_bw 0

scooby_reward_1 0,271627,55071,16880,5429,0,
scooby_reward_3 0,1377,59,14,78,0,
scooby_reward_4 0,1298,33,7,98,0,
scooby_reward_5 0,1316,52,4,114,0,
scooby_reward_10 0,1164,0,9,236,0,
scooby_reward_11 0,996,0,6,239,0,
scooby_reward_12 0,1082,0,5,279,0,
scooby_reward_22 0,863,0,3,459,0,
scooby_reward_23 0,836,2,3,533,0,
scooby_reward_30 0,611,1,2,573,0,
scooby_reward_32 0,596,0,3,612,0,
scooby_reward_-1 0,1329,103,23,22,0,
scooby_reward_-3 0,1230,2,7,64,0,
scooby_reward_-6 0,1170,0,2,106,0,
scooby_reward_0 1835,0,0,0,0,0,

scooby_train_called 368424
scooby_train_compute_reward 287330

scooby_register_fill_called 206912
scooby_register_fill_set 183883
scooby_register_fill_set_total 183883

scooby_register_prefetch_hit_called 231092
scooby_register_prefetch_hit_set 165010
scooby_register_prefetch_hit_set_total 165010

scooby_pref_issue_scooby 485257

learning_engine_featurewise.action.called 370131
learning_engine_featurewise.action.explore 690
learning_engine_featurewise.action.exploit 369441
learning_engine_featurewise.action.fallback 311753
learning_engine_featurewise.action.dyn_fallback_saved_bw 0
learning_engine_featurewise.action.dyn_fallback_saved_bw_acc 920
learning_engine_featurewise.action.index_1_explored 37
learning_engine_featurewise.action.index_1_exploited 349801
learning_engine_featurewise.action.index_3_explored 49
learning_engine_featurewise.action.index_3_exploited 1670
learning_engine_featurewise.action.index_4_explored 37
learning_engine_featurewise.action.index_4_exploited 1481
learning_engine_featurewise.action.index_5_explored 45
learning_engine_featurewise.action.index_5_exploited 1492
learning_engine_featurewise.action.index_10_explored 57
learning_engine_featurewise.action.index_10_exploited 1360
learning_engine_featurewise.action.index_11_explored 45
learning_engine_featurewise.action.index_11_exploited 1208
learning_engine_featurewise.action.index_12_explored 54
learning_engine_featurewise.action.index_12_exploited 1323
learning_engine_featurewise.action.index_22_explored 52
learning_engine_featurewise.action.index_22_exploited 1286
learning_engine_featurewise.action.index_23_explored 45
learning_engine_featurewise.action.index_23_exploited 1344
learning_engine_featurewise.action.index_30_explored 56
learning_engine_featurewise.action.index_30_exploited 1134
learning_engine_featurewise.action.index_32_explored 36
learning_engine_featurewise.action.index_32_exploited 1198
learning_engine_featurewise.action.index_-1_explored 52
learning_engine_featurewise.action.index_-1_exploited 1747
learning_engine_featurewise.action.index_-3_explored 40
learning_engine_featurewise.action.index_-3_exploited 1350
learning_engine_featurewise.action.index_-6_explored 36
learning_engine_featurewise.action.index_-6_exploited 1261
learning_engine_featurewise.action.index_0_explored 49
learning_engine_featurewise.action.index_0_exploited 1786
learning_engine_featurewise.learn.called 368424
learning_engine_featurewise.learn.su_skip_PC 0
learning_engine_featurewise.learn.su_skip_PC_Delta 0

learning_engine_featurewise.q_value_histogram.bucket_0 126
learning_engine_featurewise.q_value_histogram.bucket_1 90
learning_engine_featurewise.q_value_histogram.bucket_2 318906
learning_engine_featurewise.q_value_histogram.bucket_3 9794
learning_engine_featurewise.q_value_histogram.bucket_4 8504
learning_engine_featurewise.q_value_histogram.bucket_5 7214
learning_engine_featurewise.q_value_histogram.bucket_6 24807
learning_engine_featurewise.q_value_histogram.bucket_7 0

learning_engine_featurewise.consensus.total 369441
learning_engine_featurewise.consensus.feature_align_PC 354279
learning_engine_featurewise.consensus.feature_align_PC_ratio 0.96
learning_engine_featurewise.consensus.feature_align_PC_Delta 367011
learning_engine_featurewise.consensus.feature_align_PC_Delta_ratio 0.99
learning_engine_featurewise.consensus.feature_align_all 352058
learning_engine_featurewise.consensus.feature_align_all_ratio 0.95

learning_engine_featurewise.feature_PC_min_weight 1000000.00000000
learning_engine_featurewise.feature_PC_max_weight 0.00000000
learning_engine_featurewise.feature_PC_Delta_min_weight 1000000.00000000
learning_engine_featurewise.feature_PC_Delta_max_weight 0.00000000
unique_pcs 123
unique_pages 28447
unique_trigger_pcs 62
total_bitmaps_seen 0
unique_bitmaps_seen 0

scooby_bw_epochs 294939
scooby_bw_level_0 255479
scooby_bw_level_1 25719
scooby_bw_level_2 11912
scooby_bw_level_3 1829

scooby_ipc_epochs 0
scooby_ipc_level_0 0
scooby_ipc_level_1 0
scooby_ipc_level_2 0
scooby_ipc_level_3 0

scooby_cache_acc_epochs 56148
scooby_cache_acc_level_0 9294
scooby_cache_acc_level_1 12551
scooby_cache_acc_level_2 12446
scooby_cache_acc_level_3 9772
scooby_cache_acc_level_4 4927
scooby_cache_acc_level_5 2471
scooby_cache_acc_level_6 1294
scooby_cache_acc_level_7 583
scooby_cache_acc_level_8 406
scooby_cache_acc_level_9 2404

Channel_0_RQ_row_buffer_hit 24480
Channel_0_RQ_row_buffer_miss 452059
Channel_0_WQ_row_buffer_hit 29856
Channel_0_WQ_row_buffer_miss 209777
Channel_0_WQ_full 0
Channel_0_dbus_congested 303271

avg_congested_cycle 9

DRAM_bw_pochs 294939
DRAM_bw_level_0 255479
DRAM_bw_level_1 25719
DRAM_bw_level_2 11912
DRAM_bw_level_3 1829
