Original cmd-> /cluster/home/vlnitu/CA-Lab4-24-vlnitu/Pythia/bin/perceptron-no-multi-no-ship-1core --warmup_instructions=1000000 --simulation_instructions=10000000 --config=/cluster/home/vlnitu/CA-Lab4-24-vlnitu/Pythia/config/nopref.ini --mail-type=BEGIN,END  -traces /cluster/home/vlnitu/CA-Lab4-24-vlnitu/Pythia/traces/481.wrf-455B.champsimtrace.xz
*************************************************
   ChampSim Multicore Out-of-Order Simulator
   Last compiled: Nov 19 2024 20:10:11
*************************************************
parsing config file: /cluster/home/vlnitu/CA-Lab4-24-vlnitu/Pythia/config/nopref.ini
unable to parse section: , name: mail-type, value: BEGIN,END

trace_0 /cluster/home/vlnitu/CA-Lab4-24-vlnitu/Pythia/traces/481.wrf-455B.champsimtrace.xz
adding L2C_PREFETCHER: NONE
Initialize SHIP state
warmup_instructions 1000000
simulation_instructions 10000000
champsim_seed 224
measure_ipc 0
measure_ipc_epoch 1000
measure_dram_bw 1
measure_dram_bw_epoch 256
measure_cache_acc 1
measure_cache_acc_epoch 1024
l1d_perfect 0
l2c_perfect 0
llc_perfect 0
l1d_semi_perfect 0
l2c_semi_perfect 0
llc_semi_perfect 0
semi_perfect_cache_page_buffer_size 64

num_cpus 1
cpu_freq 4000
dram_io_freq 2400
page_size 4096
block_size 64
max_read_per_cycle 8
max_fill_per_cycle 1
dram_channels 1
log2_dram_channels 0
dram_ranks 1
dram_banks 8
dram_rows 65536
dram_columns 128
dram_row_size 8
dram_size 4096
dram_pages 1048576

fetch_width 6
decode_width 6
exec_width 4
lq_width 2
sq_width 2
retire_width 4
scheduler_size 128
branch_mispredict_penalty 20
rob_size 256
lq_size 72
sq_size 56
num_instr_destinations_sparc 4
num_instr_destinations 2
num_instr_sources 4

itlb_set 16
itlb_way 8
itlb_rq_size 16
itlb_wq_size 16
itlb_pq_size 0
itlb_mshr_size 8
itlb_latency 1

dtlb_set 16
dtlb_way 4
dtlb_rq_size 16
dtlb_wq_size 16
dtlb_pq_size 0
dtlb_mshr_size 8
dtlb_latency 1

stlb_set 128
stlb_way 12
stlb_rq_size 32
stlb_wq_size 32
stlb_pq_size 0
stlb_mshr_size 16
stlb_latency 8

l1i_size 32
l1i_set 64
l1i_way 8
l1i_rq_size 64
l1i_wq_size 64
l1i_pq_size 8
l1i_mshr_size 8
l1i_latency 1

l1d_size 32
l1d_set 64
l1d_way 8
l1d_rq_size 64
l1d_wq_size 64
l1d_pq_size 8
l1d_mshr_size 16
l1d_latency 4

l2c_size 256
l2c_set 512
l2c_way 8
l2c_rq_size 32
l2c_wq_size 32
l2c_pq_size 32
l2c_mshr_size 32
l2c_latency 10

llc_size 2048
llc_set 2048
llc_way 16
llc_rq_size 32
llc_wq_size 32
llc_pq_size 32
llc_mshr_size 64
llc_latency 20

dram_channel_width 8
dram_wq_size 64
dram_rq_size 64
tRP 15
tRCD 15
tCAS 12.5
dram_dbus_turn_around_time 30
dram_write_high_wm 56
dram_write_low_wm 48
min_dram_writes_per_switch 16
dram_mtps 2400
dram_dbus_return_time 13


Heartbeat CPU  0 instructions:    1000002 cycles:     533747 heartbeat IPC: 1.87355 cumulative IPC: 1.87355 (Simulation time: 0 hr 0 min 1 sec) 

Warmup complete CPU  0 instructions:    1000002 cycles:     533747 (Simulation time: 0 hr 0 min 1 sec) 

Heartbeat CPU  0 instructions:    2000002 cycles:    2146135 heartbeat IPC: 0.62020 cumulative IPC: 0.62020 (Simulation time: 0 hr 0 min 3 sec) 
Heartbeat CPU  0 instructions:    3000003 cycles:    3760580 heartbeat IPC: 0.61941 cumulative IPC: 0.61980 (Simulation time: 0 hr 0 min 5 sec) 
Heartbeat CPU  0 instructions:    4000000 cycles:    5407320 heartbeat IPC: 0.60726 cumulative IPC: 0.61556 (Simulation time: 0 hr 0 min 7 sec) 
Heartbeat CPU  0 instructions:    5000002 cycles:    7039395 heartbeat IPC: 0.61272 cumulative IPC: 0.61485 (Simulation time: 0 hr 0 min 9 sec) 
Heartbeat CPU  0 instructions:    6000002 cycles:    8688345 heartbeat IPC: 0.60645 cumulative IPC: 0.61315 (Simulation time: 0 hr 0 min 10 sec) 
Heartbeat CPU  0 instructions:    7000003 cycles:   10123033 heartbeat IPC: 0.69702 cumulative IPC: 0.62570 (Simulation time: 0 hr 0 min 12 sec) 
Heartbeat CPU  0 instructions:    8000000 cycles:   11493978 heartbeat IPC: 0.72942 cumulative IPC: 0.63867 (Simulation time: 0 hr 0 min 14 sec) 
Heartbeat CPU  0 instructions:    9000003 cycles:   12878689 heartbeat IPC: 0.72217 cumulative IPC: 0.64804 (Simulation time: 0 hr 0 min 16 sec) 
Heartbeat CPU  0 instructions:   10000001 cycles:   14347665 heartbeat IPC: 0.68074 cumulative IPC: 0.65152 (Simulation time: 0 hr 0 min 18 sec) 
Heartbeat CPU  0 instructions:   11000002 cycles:   15719777 heartbeat IPC: 0.72880 cumulative IPC: 0.65850 (Simulation time: 0 hr 0 min 19 sec) 
Finished CPU 0 instructions: 10000000 cycles: 15186030 cumulative IPC: 0.65850 (Simulation time: 0 hr 0 min 19 sec) 

ChampSim completed all CPUs

[ROI Statistics]
Core_0_instructions 10000000
Core_0_cycles 15186030
Core_0_IPC 0.65850

Core_0_branch_prediction_accuracy 99.21456
Core_0_branch_MPKI 0.17310
Core_0_average_ROB_occupancy_at_mispredict 246.37493

Core_0_L1D_total_access 4062469
Core_0_L1D_total_hit 3954137
Core_0_L1D_total_miss 108332
Core_0_L1D_loads 3351885
Core_0_L1D_load_hit 3250662
Core_0_L1D_load_miss 101223
Core_0_L1D_RFOs 710584
Core_0_L1D_RFO_hit 703475
Core_0_L1D_RFO_miss 7109
Core_0_L1D_prefetches 0
Core_0_L1D_prefetch_hit 0
Core_0_L1D_prefetch_miss 0
Core_0_L1D_writebacks 0
Core_0_L1D_writeback_hit 0
Core_0_L1D_writeback_miss 0
Core_0_L1D_prefetch_requested 0
Core_0_L1D_prefetch_dropped 0
Core_0_L1D_prefetch_issued 0
Core_0_L1D_prefetch_filled 0
Core_0_L1D_prefetch_useful 0
Core_0_L1D_prefetch_useless 0
Core_0_L1D_prefetch_late 0
Core_0_L1D_average_miss_latency 89.64226

Core_0_L1D_rq_access 4352884
Core_0_L1D_rq_forward 0
Core_0_L1D_rq_merged 944062
Core_0_L1D_rq_to_cache 3408822
Core_0_L1D_rq_full 0

Core_0_L1D_wq_access 722695
Core_0_L1D_wq_forward 0
Core_0_L1D_wq_merged 0
Core_0_L1D_wq_to_cache 722695
Core_0_L1D_wq_full 0

Core_0_L1D_pq_access 0
Core_0_L1D_pq_forward 0
Core_0_L1D_pq_merged 0
Core_0_L1D_pq_to_cache 0
Core_0_L1D_pq_full 0

Core_0_L1D_acc_epochs 15260
Core_0_L1D_acc_level_0 15260
Core_0_L1D_acc_level_1 0
Core_0_L1D_acc_level_2 0
Core_0_L1D_acc_level_3 0
Core_0_L1D_acc_level_4 0
Core_0_L1D_acc_level_5 0
Core_0_L1D_acc_level_6 0
Core_0_L1D_acc_level_7 0
Core_0_L1D_acc_level_8 0
Core_0_L1D_acc_level_9 0

Core_0_L1I_total_access 2460238
Core_0_L1I_total_hit 2460180
Core_0_L1I_total_miss 58
Core_0_L1I_loads 2460238
Core_0_L1I_load_hit 2460180
Core_0_L1I_load_miss 58
Core_0_L1I_RFOs 0
Core_0_L1I_RFO_hit 0
Core_0_L1I_RFO_miss 0
Core_0_L1I_prefetches 0
Core_0_L1I_prefetch_hit 0
Core_0_L1I_prefetch_miss 0
Core_0_L1I_writebacks 0
Core_0_L1I_writeback_hit 0
Core_0_L1I_writeback_miss 0
Core_0_L1I_prefetch_requested 0
Core_0_L1I_prefetch_dropped 0
Core_0_L1I_prefetch_issued 0
Core_0_L1I_prefetch_filled 0
Core_0_L1I_prefetch_useful 0
Core_0_L1I_prefetch_useless 0
Core_0_L1I_prefetch_late 0
Core_0_L1I_average_miss_latency 201.98276

Core_0_L1I_rq_access 9999998
Core_0_L1I_rq_forward 0
Core_0_L1I_rq_merged 7539681
Core_0_L1I_rq_to_cache 2460317
Core_0_L1I_rq_full 0

Core_0_L1I_wq_access 0
Core_0_L1I_wq_forward 0
Core_0_L1I_wq_merged 0
Core_0_L1I_wq_to_cache 0
Core_0_L1I_wq_full 0

Core_0_L1I_pq_access 0
Core_0_L1I_pq_forward 0
Core_0_L1I_pq_merged 0
Core_0_L1I_pq_to_cache 0
Core_0_L1I_pq_full 0

Core_0_L1I_acc_epochs 15260
Core_0_L1I_acc_level_0 15260
Core_0_L1I_acc_level_1 0
Core_0_L1I_acc_level_2 0
Core_0_L1I_acc_level_3 0
Core_0_L1I_acc_level_4 0
Core_0_L1I_acc_level_5 0
Core_0_L1I_acc_level_6 0
Core_0_L1I_acc_level_7 0
Core_0_L1I_acc_level_8 0
Core_0_L1I_acc_level_9 0

Core_0_L2C_total_access 123225
Core_0_L2C_total_hit 63021
Core_0_L2C_total_miss 60204
Core_0_L2C_loads 101281
Core_0_L2C_load_hit 41142
Core_0_L2C_load_miss 60139
Core_0_L2C_RFOs 7109
Core_0_L2C_RFO_hit 7083
Core_0_L2C_RFO_miss 26
Core_0_L2C_prefetches 0
Core_0_L2C_prefetch_hit 0
Core_0_L2C_prefetch_miss 0
Core_0_L2C_writebacks 14835
Core_0_L2C_writeback_hit 14796
Core_0_L2C_writeback_miss 39
Core_0_L2C_prefetch_requested 0
Core_0_L2C_prefetch_dropped 0
Core_0_L2C_prefetch_issued 0
Core_0_L2C_prefetch_filled 0
Core_0_L2C_prefetch_useful 0
Core_0_L2C_prefetch_useless 0
Core_0_L2C_prefetch_late 0
Core_0_L2C_average_miss_latency 135.98849

Core_0_L2C_rq_access 108390
Core_0_L2C_rq_forward 0
Core_0_L2C_rq_merged 0
Core_0_L2C_rq_to_cache 108390
Core_0_L2C_rq_full 0

Core_0_L2C_wq_access 14835
Core_0_L2C_wq_forward 0
Core_0_L2C_wq_merged 0
Core_0_L2C_wq_to_cache 14835
Core_0_L2C_wq_full 0

Core_0_L2C_pq_access 0
Core_0_L2C_pq_forward 0
Core_0_L2C_pq_merged 0
Core_0_L2C_pq_to_cache 0
Core_0_L2C_pq_full 0

Core_0_L2C_acc_epochs 15260
Core_0_L2C_acc_level_0 15260
Core_0_L2C_acc_level_1 0
Core_0_L2C_acc_level_2 0
Core_0_L2C_acc_level_3 0
Core_0_L2C_acc_level_4 0
Core_0_L2C_acc_level_5 0
Core_0_L2C_acc_level_6 0
Core_0_L2C_acc_level_7 0
Core_0_L2C_acc_level_8 0
Core_0_L2C_acc_level_9 0

Core_0_LLC_total_access 67276
Core_0_LLC_total_hit 7946
Core_0_LLC_total_miss 59330
Core_0_LLC_loads 60139
Core_0_LLC_load_hit 1764
Core_0_LLC_load_miss 58375
Core_0_LLC_RFOs 26
Core_0_LLC_RFO_hit 19
Core_0_LLC_RFO_miss 7
Core_0_LLC_prefetches 0
Core_0_LLC_prefetch_hit 0
Core_0_LLC_prefetch_miss 0
Core_0_LLC_writebacks 7111
Core_0_LLC_writeback_hit 6163
Core_0_LLC_writeback_miss 948
Core_0_LLC_prefetch_requested 0
Core_0_LLC_prefetch_dropped 0
Core_0_LLC_prefetch_issued 0
Core_0_LLC_prefetch_filled 0
Core_0_LLC_prefetch_useful 0
Core_0_LLC_prefetch_useless 0
Core_0_LLC_prefetch_late 0
Core_0_LLC_average_miss_latency 107.47133

Core_0_LLC_rq_access 60165
Core_0_LLC_rq_forward 0
Core_0_LLC_rq_merged 0
Core_0_LLC_rq_to_cache 60165
Core_0_LLC_rq_full 0

Core_0_LLC_wq_access 7111
Core_0_LLC_wq_forward 0
Core_0_LLC_wq_merged 0
Core_0_LLC_wq_to_cache 7111
Core_0_LLC_wq_full 0

Core_0_LLC_pq_access 0
Core_0_LLC_pq_forward 0
Core_0_LLC_pq_merged 0
Core_0_LLC_pq_to_cache 0
Core_0_LLC_pq_full 0

Core_0_LLC_acc_epochs 15352
Core_0_LLC_acc_level_0 15352
Core_0_LLC_acc_level_1 0
Core_0_LLC_acc_level_2 0
Core_0_LLC_acc_level_3 0
Core_0_LLC_acc_level_4 0
Core_0_LLC_acc_level_5 0
Core_0_LLC_acc_level_6 0
Core_0_LLC_acc_level_7 0
Core_0_LLC_acc_level_8 0
Core_0_LLC_acc_level_9 0

Core_0_major_page_fault 0
Core_0_minor_page_fault 1095

Channel_0_RQ_row_buffer_hit 43724
Channel_0_RQ_row_buffer_miss 14658
Channel_0_WQ_row_buffer_hit 805
Channel_0_WQ_row_buffer_miss 2740
Channel_0_WQ_full 0
Channel_0_dbus_congested 1324

avg_congested_cycle 8

DRAM_bw_pochs 61406
DRAM_bw_level_0 61178
DRAM_bw_level_1 225
DRAM_bw_level_2 2
DRAM_bw_level_3 1
