Original cmd-> /cluster/home/vlnitu/CA-Lab4-24-vlnitu/Pythia/bin/perceptron-no-multi-no-ship-1core --warmup_instructions=1000000 --simulation_instructions=10000000 --l2c_prefetcher_types=scooby --config=/cluster/home/vlnitu/CA-Lab4-24-vlnitu/Pythia/config/pythia.ini --mail-type=BEGIN,END  -traces /cluster/home/vlnitu/CA-Lab4-24-vlnitu/Pythia/traces/481.wrf-455B.champsimtrace.xz
*************************************************
   ChampSim Multicore Out-of-Order Simulator
   Last compiled: Nov 19 2024 20:10:11
*************************************************
parsing config file: /cluster/home/vlnitu/CA-Lab4-24-vlnitu/Pythia/config/pythia.ini
unable to parse section: , name: mail-type, value: BEGIN,END

trace_0 /cluster/home/vlnitu/CA-Lab4-24-vlnitu/Pythia/traces/481.wrf-455B.champsimtrace.xz
adding L2C_PREFETCHER: Scooby
Initialize SHIP state
warmup_instructions 1000000
simulation_instructions 10000000
champsim_seed 224
measure_ipc 0
measure_ipc_epoch 1000
measure_dram_bw 1
measure_dram_bw_epoch 256
measure_cache_acc 1
measure_cache_acc_epoch 1024
l1d_perfect 0
l2c_perfect 0
llc_perfect 0
l1d_semi_perfect 0
l2c_semi_perfect 0
llc_semi_perfect 0
semi_perfect_cache_page_buffer_size 64

num_cpus 1
cpu_freq 4000
dram_io_freq 2400
page_size 4096
block_size 64
max_read_per_cycle 8
max_fill_per_cycle 1
dram_channels 1
log2_dram_channels 0
dram_ranks 1
dram_banks 8
dram_rows 65536
dram_columns 128
dram_row_size 8
dram_size 4096
dram_pages 1048576

fetch_width 6
decode_width 6
exec_width 4
lq_width 2
sq_width 2
retire_width 4
scheduler_size 128
branch_mispredict_penalty 20
rob_size 256
lq_size 72
sq_size 56
num_instr_destinations_sparc 4
num_instr_destinations 2
num_instr_sources 4

itlb_set 16
itlb_way 8
itlb_rq_size 16
itlb_wq_size 16
itlb_pq_size 0
itlb_mshr_size 8
itlb_latency 1

dtlb_set 16
dtlb_way 4
dtlb_rq_size 16
dtlb_wq_size 16
dtlb_pq_size 0
dtlb_mshr_size 8
dtlb_latency 1

stlb_set 128
stlb_way 12
stlb_rq_size 32
stlb_wq_size 32
stlb_pq_size 0
stlb_mshr_size 16
stlb_latency 8

l1i_size 32
l1i_set 64
l1i_way 8
l1i_rq_size 64
l1i_wq_size 64
l1i_pq_size 8
l1i_mshr_size 8
l1i_latency 1

l1d_size 32
l1d_set 64
l1d_way 8
l1d_rq_size 64
l1d_wq_size 64
l1d_pq_size 8
l1d_mshr_size 16
l1d_latency 4

l2c_size 256
l2c_set 512
l2c_way 8
l2c_rq_size 32
l2c_wq_size 32
l2c_pq_size 32
l2c_mshr_size 32
l2c_latency 10

llc_size 2048
llc_set 2048
llc_way 16
llc_rq_size 32
llc_wq_size 32
llc_pq_size 32
llc_mshr_size 64
llc_latency 20

dram_channel_width 8
dram_wq_size 64
dram_rq_size 64
tRP 15
tRCD 15
tCAS 12.5
dram_dbus_turn_around_time 30
dram_write_high_wm 56
dram_write_low_wm 48
min_dram_writes_per_switch 16
dram_mtps 2400
dram_dbus_return_time 13

scooby_alpha 0.0065088
scooby_gamma 0.556301
scooby_epsilon 0.00182284
scooby_state_num_bits 10
scooby_max_states 1024
scooby_seed 200
scooby_policy EGreedy
scooby_learning_type SARSA
scooby_actions 1,3,4,5,10,11,12,22,23,30,32,-1,-3,-6,0,
scooby_max_actions 15
scooby_pt_size 256
scooby_st_size 64
scooby_max_pcs 5
scooby_max_offsets 5
scooby_max_deltas 5
scooby_reward_none -4
scooby_reward_incorrect -8
scooby_reward_correct_untimely 12
scooby_reward_correct_timely 20
scooby_brain_zero_init 0
scooby_enable_reward_all 0
scooby_enable_track_multiple 0
scooby_enable_reward_out_of_bounds 1
scooby_reward_out_of_bounds -12
scooby_state_type 1
scooby_state_hash_type 11
scooby_access_debug 0
scooby_print_access_debug 0
scooby_print_access_debug_pc deadbeef
scooby_print_access_debug_pc_count 0
scooby_print_trace 0
scooby_enable_state_action_stats 1
scooby_enable_reward_tracker_hit 0
scooby_reward_tracker_hit -2
scooby_enable_featurewise_engine 1
scooby_pref_degree 1
scooby_enable_dyn_degree 1
scooby_max_to_avg_q_thresholds 0.5,1,2,
scooby_dyn_degrees 1,2,4,4,
scooby_multi_deg_select_type 2
scooby_last_pref_offset_conf_thresholds 1,3,8,
scooby_dyn_degrees_type2 1,2,4,6,
scooby_action_tracker_size 2
scooby_high_bw_thresh 4
scooby_enable_hbw_reward 1
scooby_reward_hbw_correct_timely 20
scooby_reward_hbw_correct_untimely 12
scooby_reward_hbw_incorrect -14
scooby_reward_hbw_none -2
scooby_reward_hbw_out_of_bounds -12
scooby_reward_hbw_tracker_hit -2
scooby_last_pref_offset_conf_thresholds_hbw 1,3,8,
scooby_dyn_degrees_type2_hbw 1,2,4,6,

le_enable_trace 0
le_trace_interval 0
le_trace_file_name 
le_trace_state 0
le_enable_score_plot 0
le_plot_file_name 
le_plot_actions 
le_enable_action_trace 0
le_action_trace_interval 0
le_action_trace_name 
le_enable_action_plot 0

le_featurewise_active_features PC, PC_Delta
le_featurewise_num_tilings 3,3,
le_featurewise_num_tiles 128,128,
le_featurewise_hash_types 2,2,
le_featurewise_enable_tiling_offset 1,1,
le_featurewise_max_q_thresh 0.5
le_featurewise_enable_action_fallback 1
le_featurewise_feature_weights 1,1,
le_featurewise_enable_dynamic_weight 0
le_featurewise_weight_gradient 0.001
le_featurewise_disable_adjust_weight_all_features_align 1
le_featurewise_selective_update 0
le_featurewise_pooling_type 2
le_featurewise_enable_dyn_action_fallback 1
le_featurewise_bw_acc_check_level 1
le_featurewise_acc_thresh 2
le_featurewise_enable_trace 0
le_featurewise_trace_feature_type 0
le_featurewise_trace_feature 
le_featurewise_trace_interval 0
le_featurewise_trace_record_count 0
le_featurewise_trace_file_name 
le_featurewise_enable_score_plot 0
le_featurewise_plot_actions 
le_featurewise_plot_file_name 


Heartbeat CPU  0 instructions:    1000002 cycles:     531657 heartbeat IPC: 1.88092 cumulative IPC: 1.88092 (Simulation time: 0 hr 0 min 1 sec) 

Warmup complete CPU  0 instructions:    1000002 cycles:     531657 (Simulation time: 0 hr 0 min 1 sec) 

Heartbeat CPU  0 instructions:    2000002 cycles:    1699901 heartbeat IPC: 0.85599 cumulative IPC: 0.85599 (Simulation time: 0 hr 0 min 3 sec) 
Heartbeat CPU  0 instructions:    3000003 cycles:    2890005 heartbeat IPC: 0.84026 cumulative IPC: 0.84805 (Simulation time: 0 hr 0 min 5 sec) 
Heartbeat CPU  0 instructions:    4000000 cycles:    4079803 heartbeat IPC: 0.84048 cumulative IPC: 0.84551 (Simulation time: 0 hr 0 min 7 sec) 
Heartbeat CPU  0 instructions:    5000002 cycles:    5226518 heartbeat IPC: 0.87206 cumulative IPC: 0.85200 (Simulation time: 0 hr 0 min 9 sec) 
Heartbeat CPU  0 instructions:    6000002 cycles:    6415946 heartbeat IPC: 0.84074 cumulative IPC: 0.84972 (Simulation time: 0 hr 0 min 10 sec) 
Heartbeat CPU  0 instructions:    7000000 cycles:    7396502 heartbeat IPC: 1.01983 cumulative IPC: 0.87402 (Simulation time: 0 hr 0 min 12 sec) 
Heartbeat CPU  0 instructions:    8000000 cycles:    8320107 heartbeat IPC: 1.08271 cumulative IPC: 0.89877 (Simulation time: 0 hr 0 min 14 sec) 
Heartbeat CPU  0 instructions:    9000003 cycles:    9250955 heartbeat IPC: 1.07429 cumulative IPC: 0.91751 (Simulation time: 0 hr 0 min 16 sec) 
Heartbeat CPU  0 instructions:   10000003 cycles:   10195729 heartbeat IPC: 1.05845 cumulative IPC: 0.93128 (Simulation time: 0 hr 0 min 17 sec) 
Heartbeat CPU  0 instructions:   11000000 cycles:   11121659 heartbeat IPC: 1.07999 cumulative IPC: 0.94429 (Simulation time: 0 hr 0 min 19 sec) 
Finished CPU 0 instructions: 10000000 cycles: 10590003 cumulative IPC: 0.94429 (Simulation time: 0 hr 0 min 19 sec) 

ChampSim completed all CPUs

[ROI Statistics]
Core_0_instructions 10000000
Core_0_cycles 10590003
Core_0_IPC 0.94429

Core_0_branch_prediction_accuracy 99.21456
Core_0_branch_MPKI 0.17310
Core_0_average_ROB_occupancy_at_mispredict 246.22646

Core_0_L1D_total_access 4091461
Core_0_L1D_total_hit 3983128
Core_0_L1D_total_miss 108333
Core_0_L1D_loads 3381331
Core_0_L1D_load_hit 3280109
Core_0_L1D_load_miss 101222
Core_0_L1D_RFOs 710130
Core_0_L1D_RFO_hit 703019
Core_0_L1D_RFO_miss 7111
Core_0_L1D_prefetches 0
Core_0_L1D_prefetch_hit 0
Core_0_L1D_prefetch_miss 0
Core_0_L1D_writebacks 0
Core_0_L1D_writeback_hit 0
Core_0_L1D_writeback_miss 0
Core_0_L1D_prefetch_requested 0
Core_0_L1D_prefetch_dropped 0
Core_0_L1D_prefetch_issued 0
Core_0_L1D_prefetch_filled 0
Core_0_L1D_prefetch_useful 0
Core_0_L1D_prefetch_useless 0
Core_0_L1D_prefetch_late 0
Core_0_L1D_average_miss_latency 16.29010

Core_0_L1D_rq_access 4352866
Core_0_L1D_rq_forward 0
Core_0_L1D_rq_merged 950066
Core_0_L1D_rq_to_cache 3402800
Core_0_L1D_rq_full 0

Core_0_L1D_wq_access 722695
Core_0_L1D_wq_forward 0
Core_0_L1D_wq_merged 0
Core_0_L1D_wq_to_cache 722695
Core_0_L1D_wq_full 0

Core_0_L1D_pq_access 0
Core_0_L1D_pq_forward 0
Core_0_L1D_pq_merged 0
Core_0_L1D_pq_to_cache 0
Core_0_L1D_pq_full 0

Core_0_L1D_acc_epochs 10770
Core_0_L1D_acc_level_0 10770
Core_0_L1D_acc_level_1 0
Core_0_L1D_acc_level_2 0
Core_0_L1D_acc_level_3 0
Core_0_L1D_acc_level_4 0
Core_0_L1D_acc_level_5 0
Core_0_L1D_acc_level_6 0
Core_0_L1D_acc_level_7 0
Core_0_L1D_acc_level_8 0
Core_0_L1D_acc_level_9 0

Core_0_L1I_total_access 2456324
Core_0_L1I_total_hit 2456266
Core_0_L1I_total_miss 58
Core_0_L1I_loads 2456324
Core_0_L1I_load_hit 2456266
Core_0_L1I_load_miss 58
Core_0_L1I_RFOs 0
Core_0_L1I_RFO_hit 0
Core_0_L1I_RFO_miss 0
Core_0_L1I_prefetches 0
Core_0_L1I_prefetch_hit 0
Core_0_L1I_prefetch_miss 0
Core_0_L1I_writebacks 0
Core_0_L1I_writeback_hit 0
Core_0_L1I_writeback_miss 0
Core_0_L1I_prefetch_requested 0
Core_0_L1I_prefetch_dropped 0
Core_0_L1I_prefetch_issued 0
Core_0_L1I_prefetch_filled 0
Core_0_L1I_prefetch_useful 0
Core_0_L1I_prefetch_useless 0
Core_0_L1I_prefetch_late 0
Core_0_L1I_average_miss_latency 145.00000

Core_0_L1I_rq_access 10000002
Core_0_L1I_rq_forward 0
Core_0_L1I_rq_merged 7543601
Core_0_L1I_rq_to_cache 2456401
Core_0_L1I_rq_full 0

Core_0_L1I_wq_access 0
Core_0_L1I_wq_forward 0
Core_0_L1I_wq_merged 0
Core_0_L1I_wq_to_cache 0
Core_0_L1I_wq_full 0

Core_0_L1I_pq_access 0
Core_0_L1I_pq_forward 0
Core_0_L1I_pq_merged 0
Core_0_L1I_pq_to_cache 0
Core_0_L1I_pq_full 0

Core_0_L1I_acc_epochs 10770
Core_0_L1I_acc_level_0 10770
Core_0_L1I_acc_level_1 0
Core_0_L1I_acc_level_2 0
Core_0_L1I_acc_level_3 0
Core_0_L1I_acc_level_4 0
Core_0_L1I_acc_level_5 0
Core_0_L1I_acc_level_6 0
Core_0_L1I_acc_level_7 0
Core_0_L1I_acc_level_8 0
Core_0_L1I_acc_level_9 0

Core_0_L2C_total_access 650300
Core_0_L2C_total_hit 588041
Core_0_L2C_total_miss 62259
Core_0_L2C_loads 101280
Core_0_L2C_load_hit 99715
Core_0_L2C_load_miss 1565
Core_0_L2C_RFOs 7111
Core_0_L2C_RFO_hit 7053
Core_0_L2C_RFO_miss 58
Core_0_L2C_prefetches 527074
Core_0_L2C_prefetch_hit 466474
Core_0_L2C_prefetch_miss 60600
Core_0_L2C_writebacks 14835
Core_0_L2C_writeback_hit 14799
Core_0_L2C_writeback_miss 36
Core_0_L2C_prefetch_requested 597948
Core_0_L2C_prefetch_dropped 437
Core_0_L2C_prefetch_issued 597511
Core_0_L2C_prefetch_filled 69100
Core_0_L2C_prefetch_useful 67351
Core_0_L2C_prefetch_useless 1630
Core_0_L2C_prefetch_late 144
Core_0_L2C_average_miss_latency 139.25993

Core_0_L2C_rq_access 108391
Core_0_L2C_rq_forward 0
Core_0_L2C_rq_merged 0
Core_0_L2C_rq_to_cache 108391
Core_0_L2C_rq_full 0

Core_0_L2C_wq_access 14835
Core_0_L2C_wq_forward 0
Core_0_L2C_wq_merged 0
Core_0_L2C_wq_to_cache 14835
Core_0_L2C_wq_full 0

Core_0_L2C_pq_access 597511
Core_0_L2C_pq_forward 0
Core_0_L2C_pq_merged 758
Core_0_L2C_pq_to_cache 596753
Core_0_L2C_pq_full 0

Core_0_L2C_acc_epochs 10770
Core_0_L2C_acc_level_0 2
Core_0_L2C_acc_level_1 2
Core_0_L2C_acc_level_2 6
Core_0_L2C_acc_level_3 15
Core_0_L2C_acc_level_4 22
Core_0_L2C_acc_level_5 46
Core_0_L2C_acc_level_6 62
Core_0_L2C_acc_level_7 386
Core_0_L2C_acc_level_8 1538
Core_0_L2C_acc_level_9 8691

Core_0_LLC_total_access 69374
Core_0_LLC_total_hit 8853
Core_0_LLC_total_miss 60521
Core_0_LLC_loads 1422
Core_0_LLC_load_hit 127
Core_0_LLC_load_miss 1295
Core_0_LLC_RFOs 58
Core_0_LLC_RFO_hit 56
Core_0_LLC_RFO_miss 2
Core_0_LLC_prefetches 60743
Core_0_LLC_prefetch_hit 2465
Core_0_LLC_prefetch_miss 58278
Core_0_LLC_writebacks 7151
Core_0_LLC_writeback_hit 6205
Core_0_LLC_writeback_miss 946
Core_0_LLC_prefetch_requested 0
Core_0_LLC_prefetch_dropped 0
Core_0_LLC_prefetch_issued 0
Core_0_LLC_prefetch_filled 66058
Core_0_LLC_prefetch_useful 35
Core_0_LLC_prefetch_useless 34580
Core_0_LLC_prefetch_late 0
Core_0_LLC_average_miss_latency 112.42055

Core_0_LLC_rq_access 1480
Core_0_LLC_rq_forward 0
Core_0_LLC_rq_merged 0
Core_0_LLC_rq_to_cache 1480
Core_0_LLC_rq_full 0

Core_0_LLC_wq_access 7151
Core_0_LLC_wq_forward 0
Core_0_LLC_wq_merged 0
Core_0_LLC_wq_to_cache 7151
Core_0_LLC_wq_full 0

Core_0_LLC_pq_access 69246
Core_0_LLC_pq_forward 0
Core_0_LLC_pq_merged 0
Core_0_LLC_pq_to_cache 69246
Core_0_LLC_pq_full 0

Core_0_LLC_acc_epochs 10861
Core_0_LLC_acc_level_0 10856
Core_0_LLC_acc_level_1 4
Core_0_LLC_acc_level_2 0
Core_0_LLC_acc_level_3 1
Core_0_LLC_acc_level_4 0
Core_0_LLC_acc_level_5 0
Core_0_LLC_acc_level_6 0
Core_0_LLC_acc_level_7 0
Core_0_LLC_acc_level_8 0
Core_0_LLC_acc_level_9 0

Core_0_major_page_fault 0
Core_0_minor_page_fault 1095

scooby_st_lookup 114520
scooby_st_hit 112985
scooby_st_evict 1471
scooby_st_insert 1535
scooby_st_streaming 0

scooby_predict_called 114520
scooby_predict_out_of_bounds 1826
scooby_predict_action_1 112515
scooby_predict_issue_action_1 112419
scooby_predict_hit_action_1 96
scooby_predict_out_of_bounds_action_1 1785
scooby_predict_action_3 20
scooby_predict_issue_action_3 20
scooby_predict_hit_action_3 0
scooby_predict_out_of_bounds_action_3 1
scooby_predict_action_4 11
scooby_predict_issue_action_4 11
scooby_predict_hit_action_4 0
scooby_predict_out_of_bounds_action_4 3
scooby_predict_action_5 12
scooby_predict_issue_action_5 12
scooby_predict_hit_action_5 0
scooby_predict_out_of_bounds_action_5 1
scooby_predict_action_10 22
scooby_predict_issue_action_10 22
scooby_predict_hit_action_10 0
scooby_predict_out_of_bounds_action_10 2
scooby_predict_action_11 25
scooby_predict_issue_action_11 15
scooby_predict_hit_action_11 10
scooby_predict_out_of_bounds_action_11 2
scooby_predict_action_12 9
scooby_predict_issue_action_12 9
scooby_predict_hit_action_12 0
scooby_predict_out_of_bounds_action_12 4
scooby_predict_action_22 9
scooby_predict_issue_action_22 9
scooby_predict_hit_action_22 0
scooby_predict_out_of_bounds_action_22 7
scooby_predict_action_23 12
scooby_predict_issue_action_23 12
scooby_predict_hit_action_23 0
scooby_predict_out_of_bounds_action_23 3
scooby_predict_action_30 7
scooby_predict_issue_action_30 7
scooby_predict_hit_action_30 0
scooby_predict_out_of_bounds_action_30 9
scooby_predict_action_32 7
scooby_predict_issue_action_32 7
scooby_predict_hit_action_32 0
scooby_predict_out_of_bounds_action_32 7
scooby_predict_action_-1 15
scooby_predict_issue_action_-1 0
scooby_predict_hit_action_-1 15
scooby_predict_out_of_bounds_action_-1 0
scooby_predict_action_-3 9
scooby_predict_issue_action_-3 1
scooby_predict_hit_action_-3 8
scooby_predict_out_of_bounds_action_-3 1
scooby_predict_action_-6 9
scooby_predict_issue_action_-6 1
scooby_predict_hit_action_-6 8
scooby_predict_out_of_bounds_action_-6 1
scooby_predict_action_0 12
scooby_predict_issue_action_0 0
scooby_predict_hit_action_0 0
scooby_predict_out_of_bounds_action_0 0
scooby_predict_multi_deg_called 107853
scooby_predict_predicted 597948
scooby_predict_multi_deg 485403
scooby_predict_multi_deg_2 106066
scooby_predict_multi_deg_3 101286
scooby_predict_multi_deg_4 99511
scooby_predict_multi_deg_5 90159
scooby_predict_multi_deg_6 88381
scooby_predict_multi_deg_7 0
scooby_predict_multi_deg_8 0
scooby_predict_multi_deg_9 0
scooby_predict_multi_deg_10 0
scooby_predict_multi_deg_11 0
scooby_predict_multi_deg_12 0
scooby_predict_multi_deg_13 0
scooby_predict_multi_deg_14 0
scooby_predict_multi_deg_15 0
scooby_predict_multi_deg_16 0

scooby_selected_deg_1 4692
scooby_selected_deg_2 3008
scooby_selected_deg_3 0
scooby_selected_deg_4 7592
scooby_selected_deg_5 0
scooby_selected_deg_6 97253
scooby_selected_deg_7 0
scooby_selected_deg_8 0
scooby_selected_deg_9 0
scooby_selected_deg_10 0
scooby_selected_deg_11 0
scooby_selected_deg_12 0
scooby_selected_deg_13 0
scooby_selected_deg_14 0
scooby_selected_deg_15 0
scooby_selected_deg_16 0

scooby_state_6a3c8b|62|1 81,0,0,0,0,0,0,0,0,0,0,0,0,0,0,81,
scooby_state_6a3c8b|58|1 81,0,0,0,0,0,0,0,0,0,0,0,0,0,0,81,
scooby_state_6a3c8b|41|1 81,0,0,0,0,0,0,0,0,0,0,0,0,0,0,81,
scooby_state_6a3c8b|46|1 81,0,0,0,0,0,0,0,0,0,0,0,0,0,0,81,
scooby_state_6a3c8b|44|1 81,0,0,0,0,0,0,0,0,0,0,0,0,0,0,81,
scooby_state_6a3c8b|59|1 81,0,0,0,0,0,0,0,0,0,0,0,0,0,0,81,
scooby_state_6a3c8b|53|1 81,0,0,0,0,0,0,0,0,0,0,0,0,0,0,81,
scooby_state_6a3c8b|2|1 81,0,0,0,0,0,0,0,0,0,0,0,0,0,0,81,
scooby_state_6a3c8b|47|1 80,0,0,0,0,0,0,0,0,1,0,0,0,0,0,81,
scooby_state_6a3c8b|39|1 81,0,0,0,0,0,0,0,0,0,0,0,0,0,0,81,
scooby_state_6a3c8b|56|1 81,0,0,0,0,0,0,0,0,0,0,0,0,0,0,81,
scooby_state_6a3c8b|50|1 81,0,0,0,0,0,0,0,0,0,0,0,0,0,0,81,
scooby_state_6a3c8b|60|1 81,0,0,0,0,0,0,0,0,0,0,0,0,0,0,81,
scooby_state_6a3c8b|38|1 81,0,0,0,0,0,0,0,0,0,0,0,0,0,0,81,
scooby_state_6a3c8b|6|1 81,0,0,0,0,0,0,0,0,0,0,0,0,0,0,81,
scooby_state_6a3c8b|49|1 81,0,0,0,0,0,0,0,0,0,0,0,0,0,0,81,
scooby_state_6a3c8b|63|1 80,0,0,0,0,1,0,0,0,0,0,0,0,0,0,81,
scooby_state_6a3c8b|45|1 81,0,0,0,0,0,0,0,0,0,0,0,0,0,0,81,
scooby_state_6a3c8b|40|1 80,0,0,0,0,0,0,0,1,0,0,0,0,0,0,81,
scooby_state_6a3c8b|61|1 81,0,0,0,0,0,0,0,0,0,0,0,0,0,0,81,
scooby_state_6a3c8b|3|1 81,0,0,0,0,0,0,0,0,0,0,0,0,0,0,81,
scooby_state_6a3c8b|43|1 81,0,0,0,0,0,0,0,0,0,0,0,0,0,0,81,
scooby_state_6a3c8b|55|1 81,0,0,0,0,0,0,0,0,0,0,0,0,0,0,81,
scooby_state_6a3c8b|57|1 81,0,0,0,0,0,0,0,0,0,0,0,0,0,0,81,
scooby_state_6a3c8b|5|1 81,0,0,0,0,0,0,0,0,0,0,0,0,0,0,81,
scooby_state_6a3c8b|1|1 80,0,0,0,0,0,0,0,0,1,0,0,0,0,0,81,
scooby_state_6a3c8b|54|1 81,0,0,0,0,0,0,0,0,0,0,0,0,0,0,81,
scooby_state_6a3c8b|51|1 81,0,0,0,0,0,0,0,0,0,0,0,0,0,0,81,
scooby_state_6a3c8b|48|1 81,0,0,0,0,0,0,0,0,0,0,0,0,0,0,81,
scooby_state_6a3c8b|4|1 81,0,0,0,0,0,0,0,0,0,0,0,0,0,0,81,
scooby_state_6a3c8b|52|1 81,0,0,0,0,0,0,0,0,0,0,0,0,0,0,81,
scooby_state_6a3c8b|42|1 80,0,0,0,0,0,1,0,0,0,0,0,0,0,0,81,
scooby_state_6a3c5f|31|1 75,0,0,0,0,0,0,0,0,0,0,0,0,0,0,75,
scooby_state_6a3c4e|4|1 75,0,0,0,0,0,0,0,0,0,0,0,0,0,0,75,
scooby_state_6a3c1b|57|1 74,0,0,0,1,0,0,0,0,0,0,0,0,0,0,75,
scooby_state_6a3cbf|55|1 74,0,0,0,0,0,0,1,0,0,0,0,0,0,0,75,
scooby_state_6a3c48|52|1 75,0,0,0,0,0,0,0,0,0,0,0,0,0,0,75,
scooby_state_6a3c3b|29|1 75,0,0,0,0,0,0,0,0,0,0,0,0,0,0,75,
scooby_state_6a3c1b|52|1 75,0,0,0,0,0,0,0,0,0,0,0,0,0,0,75,
scooby_state_6a3c64|51|1 75,0,0,0,0,0,0,0,0,0,0,0,0,0,0,75,
scooby_state_6a3c5f|37|1 75,0,0,0,0,0,0,0,0,0,0,0,0,0,0,75,
scooby_state_6a3c5f|38|1 75,0,0,0,0,0,0,0,0,0,0,0,0,0,0,75,
scooby_state_6a3ce0|21|1 75,0,0,0,0,0,0,0,0,0,0,0,0,0,0,75,
scooby_state_6a3c27|2|1 75,0,0,0,0,0,0,0,0,0,0,0,0,0,0,75,
scooby_state_6a3c48|55|1 75,0,0,0,0,0,0,0,0,0,0,0,0,0,0,75,
scooby_state_6a3c48|49|1 75,0,0,0,0,0,0,0,0,0,0,0,0,0,0,75,
scooby_state_6a3cb7|46|1 75,0,0,0,0,0,0,0,0,0,0,0,0,0,0,75,
scooby_state_6a3c33|14|1 75,0,0,0,0,0,0,0,0,0,0,0,0,0,0,75,
scooby_state_6a3c48|56|1 75,0,0,0,0,0,0,0,0,0,0,0,0,0,0,75,
scooby_state_6a3c5f|30|1 75,0,0,0,0,0,0,0,0,0,0,0,0,0,0,75,
scooby_state_6a3cb7|44|1 75,0,0,0,0,0,0,0,0,0,0,0,0,0,0,75,
scooby_state_6a3c33|17|1 75,0,0,0,0,0,0,0,0,0,0,0,0,0,0,75,
scooby_state_6a3ce0|28|1 74,0,0,0,0,0,0,0,0,0,1,0,0,0,0,75,
scooby_state_6a3c48|62|1 75,0,0,0,0,0,0,0,0,0,0,0,0,0,0,75,
scooby_state_6a3c4e|62|1 75,0,0,0,0,0,0,0,0,0,0,0,0,0,0,75,
scooby_state_6a3cb7|42|1 75,0,0,0,0,0,0,0,0,0,0,0,0,0,0,75,
scooby_state_6a3ce0|27|1 75,0,0,0,0,0,0,0,0,0,0,0,0,0,0,75,
scooby_state_6a3c1b|56|1 75,0,0,0,0,0,0,0,0,0,0,0,0,0,0,75,
scooby_state_6a3c27|3|1 75,0,0,0,0,0,0,0,0,0,0,0,0,0,0,75,
scooby_state_6a3c4e|5|1 75,0,0,0,0,0,0,0,0,0,0,0,0,0,0,75,
scooby_state_6a3c33|11|1 74,0,0,1,0,0,0,0,0,0,0,0,0,0,0,75,
scooby_state_6a3c27|16|1 75,0,0,0,0,0,0,0,0,0,0,0,0,0,0,75,
scooby_state_6a3c64|46|1 75,0,0,0,0,0,0,0,0,0,0,0,0,0,0,75,
scooby_state_6a3c1b|55|1 75,0,0,0,0,0,0,0,0,0,0,0,0,0,0,75,
scooby_state_6a3ce0|35|1 74,0,0,0,0,0,1,0,0,0,0,0,0,0,0,75,
scooby_state_6a3c27|5|1 75,0,0,0,0,0,0,0,0,0,0,0,0,0,0,75,
scooby_state_6a3c3b|31|1 75,0,0,0,0,0,0,0,0,0,0,0,0,0,0,75,
scooby_state_6a3c3b|30|1 75,0,0,0,0,0,0,0,0,0,0,0,0,0,0,75,
scooby_state_6a3c3b|32|1 75,0,0,0,0,0,0,0,0,0,0,0,0,0,0,75,
scooby_state_6a3c64|59|1 75,0,0,0,0,0,0,0,0,0,0,0,0,0,0,75,
scooby_state_6a3ce0|29|1 75,0,0,0,0,0,0,0,0,0,0,0,0,0,0,75,
scooby_state_6a3cd0|53|1 74,0,0,0,0,0,1,0,0,0,0,0,0,0,0,75,
scooby_state_6a3c5f|35|1 75,0,0,0,0,0,0,0,0,0,0,0,0,0,0,75,
scooby_state_6a3c1b|51|1 75,0,0,0,0,0,0,0,0,0,0,0,0,0,0,75,
scooby_state_6a3c5f|32|1 75,0,0,0,0,0,0,0,0,0,0,0,0,0,0,75,
scooby_state_6a3cb7|43|1 75,0,0,0,0,0,0,0,0,0,0,0,0,0,0,75,
scooby_state_6a3c1b|53|1 75,0,0,0,0,0,0,0,0,0,0,0,0,0,0,75,
scooby_state_6a3c3b|26|1 74,0,0,0,0,0,0,0,0,1,0,0,0,0,0,75,
scooby_state_6a3c27|8|1 75,0,0,0,0,0,0,0,0,0,0,0,0,0,0,75,
scooby_state_6a3c64|48|1 75,0,0,0,0,0,0,0,0,0,0,0,0,0,0,75,
scooby_state_6a3cd0|45|1 75,0,0,0,0,0,0,0,0,0,0,0,0,0,0,75,
scooby_state_6a3cbf|61|1 74,0,0,0,0,0,0,0,0,0,1,0,0,0,0,75,
scooby_state_6a3c5f|34|1 75,0,0,0,0,0,0,0,0,0,0,0,0,0,0,75,
scooby_state_6a3c64|45|1 75,0,0,0,0,0,0,0,0,0,0,0,0,0,0,75,
scooby_state_6a3c1b|58|1 75,0,0,0,0,0,0,0,0,0,0,0,0,0,0,75,
scooby_state_6a3c27|4|1 75,0,0,0,0,0,0,0,0,0,0,0,0,0,0,75,
scooby_state_6a3cd0|47|1 75,0,0,0,0,0,0,0,0,0,0,0,0,0,0,75,
scooby_state_6a3c48|50|1 75,0,0,0,0,0,0,0,0,0,0,0,0,0,0,75,
scooby_state_6a3c48|54|1 75,0,0,0,0,0,0,0,0,0,0,0,0,0,0,75,
scooby_state_6a3cbf|54|1 75,0,0,0,0,0,0,0,0,0,0,0,0,0,0,75,
scooby_state_6a3c64|52|1 74,0,0,1,0,0,0,0,0,0,0,0,0,0,0,75,
scooby_state_6a3cb7|47|1 75,0,0,0,0,0,0,0,0,0,0,0,0,0,0,75,
scooby_state_6a3cb7|40|1 75,0,0,0,0,0,0,0,0,0,0,0,0,0,0,75,
scooby_state_6a3ce0|24|1 75,0,0,0,0,0,0,0,0,0,0,0,0,0,0,75,
scooby_state_6a3c4e|2|1 75,0,0,0,0,0,0,0,0,0,0,0,0,0,0,75,
scooby_state_6a3c33|16|1 75,0,0,0,0,0,0,0,0,0,0,0,0,0,0,75,
scooby_state_6a3c48|51|1 75,0,0,0,0,0,0,0,0,0,0,0,0,0,0,75,
scooby_state_6a3c33|13|1 75,0,0,0,0,0,0,0,0,0,0,0,0,0,0,75,
scooby_state_6a3c27|9|1 75,0,0,0,0,0,0,0,0,0,0,0,0,0,0,75,
scooby_state_6a3c48|48|1 75,0,0,0,0,0,0,0,0,0,0,0,0,0,0,75,
scooby_state_6a3ce0|25|1 75,0,0,0,0,0,0,0,0,0,0,0,0,0,0,75,
scooby_state_6a3cb7|41|1 74,0,0,0,0,1,0,0,0,0,0,0,0,0,0,75,
scooby_state_6a3c4e|63|1 75,0,0,0,0,0,0,0,0,0,0,0,0,0,0,75,
scooby_state_6a3cd0|49|1 75,0,0,0,0,0,0,0,0,0,0,0,0,0,0,75,
scooby_state_6a3cd0|46|1 75,0,0,0,0,0,0,0,0,0,0,0,0,0,0,75,
scooby_state_6a3c33|24|1 74,0,0,0,0,0,0,1,0,0,0,0,0,0,0,75,
scooby_state_6a3cb7|48|1 75,0,0,0,0,0,0,0,0,0,0,0,0,0,0,75,
scooby_state_6a3c3b|24|1 75,0,0,0,0,0,0,0,0,0,0,0,0,0,0,75,
scooby_state_6a3c27|10|1 75,0,0,0,0,0,0,0,0,0,0,0,0,0,0,75,
scooby_state_6a3c3b|25|1 75,0,0,0,0,0,0,0,0,0,0,0,0,0,0,75,
scooby_state_6a3c33|18|1 75,0,0,0,0,0,0,0,0,0,0,0,0,0,0,75,
scooby_state_6a3c4e|6|1 75,0,0,0,0,0,0,0,0,0,0,0,0,0,0,75,
scooby_state_6a3cd0|52|1 75,0,0,0,0,0,0,0,0,0,0,0,0,0,0,75,
scooby_state_6a3c33|10|1 75,0,0,0,0,0,0,0,0,0,0,0,0,0,0,75,
scooby_state_6a3cbf|58|1 75,0,0,0,0,0,0,0,0,0,0,0,0,0,0,75,
scooby_state_6a3c3b|28|1 75,0,0,0,0,0,0,0,0,0,0,0,0,0,0,75,
scooby_state_6a3c5f|36|1 75,0,0,0,0,0,0,0,0,0,0,0,0,0,0,75,
scooby_state_6a3cbf|62|1 74,0,0,0,0,0,0,0,0,0,0,0,1,0,0,75,
scooby_state_6a3cb7|54|1 75,0,0,0,0,0,0,0,0,0,0,0,0,0,0,75,
scooby_state_6a3cbf|60|1 75,0,0,0,0,0,0,0,0,0,0,0,0,0,0,75,
scooby_state_6a3cd0|50|1 74,0,0,0,0,0,0,0,0,0,1,0,0,0,0,75,
scooby_state_6a3cd0|51|1 75,0,0,0,0,0,0,0,0,0,0,0,0,0,0,75,
scooby_state_6a3c27|6|1 75,0,0,0,0,0,0,0,0,0,0,0,0,0,0,75,
scooby_state_6a3c33|12|1 75,0,0,0,0,0,0,0,0,0,0,0,0,0,0,75,
scooby_state_6a3cbf|59|1 75,0,0,0,0,0,0,0,0,0,0,0,0,0,0,75,
scooby_state_6a3c64|47|1 75,0,0,0,0,0,0,0,0,0,0,0,0,0,0,75,
scooby_state_6a3c64|49|1 75,0,0,0,0,0,0,0,0,0,0,0,0,0,0,75,
scooby_state_6a3ce0|23|1 75,0,0,0,0,0,0,0,0,0,0,0,0,0,0,75,
scooby_state_6a3c4e|3|1 75,0,0,0,0,0,0,0,0,0,0,0,0,0,0,75,
scooby_state_6a3c1b|59|1 75,0,0,0,0,0,0,0,0,0,0,0,0,0,0,75,
scooby_state_6a3cbf|56|1 75,0,0,0,0,0,0,0,0,0,0,0,0,0,0,75,
scooby_state_6a3c64|53|1 75,0,0,0,0,0,0,0,0,0,0,0,0,0,0,75,
scooby_state_6a3ce0|22|1 75,0,0,0,0,0,0,0,0,0,0,0,0,0,0,75,
scooby_state_6a3c3b|39|1 74,0,0,0,0,0,0,0,0,0,0,0,0,0,0,74,
scooby_state_6a3c33|32|1 73,0,0,0,0,0,0,0,1,0,0,0,0,0,0,74,
scooby_state_6a3c5f|52|1 74,0,0,0,0,0,0,0,0,0,0,0,0,0,0,74,
scooby_state_6a3c1b|60|1 74,0,0,0,0,0,0,0,0,0,0,0,0,0,0,74,
scooby_state_6a3c4e|11|1 74,0,0,0,0,0,0,0,0,0,0,0,0,0,0,74,
scooby_state_6a3bf7|1|1 74,0,0,0,0,0,0,0,0,0,0,0,0,0,0,74,
scooby_state_6a3ce0|34|1 74,0,0,0,0,0,0,0,0,0,0,0,0,0,0,74,
scooby_state_6a3c48|57|1 74,0,0,0,0,0,0,0,0,0,0,0,0,0,0,74,
scooby_state_6a3c1b|16|1 74,0,0,0,0,0,0,0,0,0,0,0,0,0,0,74,
scooby_state_6a3c48|60|1 74,0,0,0,0,0,0,0,0,0,0,0,0,0,0,74,
scooby_state_6a3c1b|2|1 74,0,0,0,0,0,0,0,0,0,0,0,0,0,0,74,
scooby_state_6a3c48|5|1 74,0,0,0,0,0,0,0,0,0,0,0,0,0,0,74,
scooby_state_6a3ce0|36|1 74,0,0,0,0,0,0,0,0,0,0,0,0,0,0,74,
scooby_state_6a3cb7|62|1 74,0,0,0,0,0,0,0,0,0,0,0,0,0,0,74,
scooby_state_6a3c1b|61|1 74,0,0,0,0,0,0,0,0,0,0,0,0,0,0,74,
scooby_state_6a3c48|63|1 74,0,0,0,0,0,0,0,0,0,0,0,0,0,0,74,
scooby_state_6a3c48|6|1 74,0,0,0,0,0,0,0,0,0,0,0,0,0,0,74,
scooby_state_6a3c27|14|1 74,0,0,0,0,0,0,0,0,0,0,0,0,0,0,74,
scooby_state_6a3ce0|33|1 73,0,0,0,1,0,0,0,0,0,0,0,0,0,0,74,
scooby_state_6a3cb7|60|1 74,0,0,0,0,0,0,0,0,0,0,0,0,0,0,74,
scooby_state_6a3c27|12|1 74,0,0,0,0,0,0,0,0,0,0,0,0,0,0,74,
scooby_state_6a3c27|15|1 74,0,0,0,0,0,0,0,0,0,0,0,0,0,0,74,
scooby_state_6a3c33|20|1 74,0,0,0,0,0,0,0,0,0,0,0,0,0,0,74,
scooby_state_6a3c3b|18|1 74,0,0,0,0,0,0,0,0,0,0,0,0,0,0,74,
scooby_state_6a3c5f|48|1 73,0,0,0,0,0,1,0,0,0,0,0,0,0,0,74,
scooby_state_6a3cbf|2|1 74,0,0,0,0,0,0,0,0,0,0,0,0,0,0,74,
scooby_state_6a3c64|3|1 74,0,0,0,0,0,0,0,0,0,0,0,0,0,0,74,
scooby_state_6a3c3b|46|1 74,0,0,0,0,0,0,0,0,0,0,0,0,0,0,74,
scooby_state_6a3c4e|16|1 74,0,0,0,0,0,0,0,0,0,0,0,0,0,0,74,
scooby_state_6a3c33|30|1 73,0,0,0,0,0,0,0,0,0,1,0,0,0,0,74,
scooby_state_6a3c5f|41|1 74,0,0,0,0,0,0,0,0,0,0,0,0,0,0,74,
scooby_state_6a3cbf|6|1 74,0,0,0,0,0,0,0,0,0,0,0,0,0,0,74,
scooby_state_6a3c64|55|1 74,0,0,0,0,0,0,0,0,0,0,0,0,0,0,74,
scooby_state_6a3cd0|62|1 74,0,0,0,0,0,0,0,0,0,0,0,0,0,0,74,
scooby_state_6a3cbf|63|1 74,0,0,0,0,0,0,0,0,0,0,0,0,0,0,74,
scooby_state_6a3cbf|13|1 74,0,0,0,0,0,0,0,0,0,0,0,0,0,0,74,
scooby_state_6a3c33|25|1 74,0,0,0,0,0,0,0,0,0,0,0,0,0,0,74,
scooby_state_6a3cd0|55|1 74,0,0,0,0,0,0,0,0,0,0,0,0,0,0,74,
scooby_state_6a3cbf|5|1 73,0,0,0,1,0,0,0,0,0,0,0,0,0,0,74,
scooby_state_6a3c5f|24|1 74,0,0,0,0,0,0,0,0,0,0,0,0,0,0,74,
scooby_state_6a3c64|60|1 74,0,0,0,0,0,0,0,0,0,0,0,0,0,0,74,
scooby_state_6a3c64|24|1 74,0,0,0,0,0,0,0,0,0,0,0,0,0,0,74,
scooby_state_6a3ce0|37|1 73,0,0,0,0,0,0,0,1,0,0,0,0,0,0,74,
scooby_state_6a3c5f|49|1 74,0,0,0,0,0,0,0,0,0,0,0,0,0,0,74,
scooby_state_6a3cbf|8|1 74,0,0,0,0,0,0,0,0,0,0,0,0,0,0,74,
scooby_state_6a3cd0|0|0 74,0,0,0,0,0,0,0,0,0,0,0,0,0,0,74,
scooby_state_6a3c5f|45|1 74,0,0,0,0,0,0,0,0,0,0,0,0,0,0,74,
scooby_state_6a3c64|2|1 74,0,0,0,0,0,0,0,0,0,0,0,0,0,0,74,
scooby_state_6a3cbf|9|1 74,0,0,0,0,0,0,0,0,0,0,0,0,0,0,74,
scooby_state_6a3c3b|36|1 74,0,0,0,0,0,0,0,0,0,0,0,0,0,0,74,
scooby_state_6a3c3b|43|1 74,0,0,0,0,0,0,0,0,0,0,0,0,0,0,74,
scooby_state_6a3c64|58|1 74,0,0,0,0,0,0,0,0,0,0,0,0,0,0,74,
scooby_state_6a3ce0|40|1 74,0,0,0,0,0,0,0,0,0,0,0,0,0,0,74,
scooby_state_6a3cd0|10|1 74,0,0,0,0,0,0,0,0,0,0,0,0,0,0,74,
scooby_state_6a3c64|1|1 74,0,0,0,0,0,0,0,0,0,0,0,0,0,0,74,
scooby_state_6a3ce0|0|0 74,0,0,0,0,0,0,0,0,0,0,0,0,0,0,74,
scooby_state_6a3c1b|3|1 74,0,0,0,0,0,0,0,0,0,0,0,0,0,0,74,
scooby_state_6a3c27|23|1 74,0,0,0,0,0,0,0,0,0,0,0,0,0,0,74,
scooby_state_6a3ce0|43|1 74,0,0,0,0,0,0,0,0,0,0,0,0,0,0,74,
scooby_state_6a3cb7|45|1 74,0,0,0,0,0,0,0,0,0,0,0,0,0,0,74,
scooby_state_6a3c27|17|1 74,0,0,0,0,0,0,0,0,0,0,0,0,0,0,74,
scooby_state_6a3c1b|63|1 74,0,0,0,0,0,0,0,0,0,0,0,0,0,0,74,
scooby_state_6a3c5f|46|1 74,0,0,0,0,0,0,0,0,0,0,0,0,0,0,74,
scooby_state_6a3c27|11|1 74,0,0,0,0,0,0,0,0,0,0,0,0,0,0,74,
scooby_state_6a3c33|22|1 74,0,0,0,0,0,0,0,0,0,0,0,0,0,0,74,
scooby_state_6a3c3b|53|1 73,0,0,0,1,0,0,0,0,0,0,0,0,0,0,74,
scooby_state_6a3cd0|56|1 74,0,0,0,0,0,0,0,0,0,0,0,0,0,0,74,
scooby_state_6a3c33|26|1 73,0,0,0,0,0,0,0,1,0,0,0,0,0,0,74,
scooby_state_6a3c1b|0|0 74,0,0,0,0,0,0,0,0,0,0,0,0,0,0,74,
scooby_state_6a3c5f|51|1 74,0,0,0,0,0,0,0,0,0,0,0,0,0,0,74,
scooby_state_6a3c64|50|1 73,0,0,0,1,0,0,0,0,0,0,0,0,0,0,74,
scooby_state_6a3cbf|7|1 74,0,0,0,0,0,0,0,0,0,0,0,0,0,0,74,
scooby_state_6a3cbf|4|1 74,0,0,0,0,0,0,0,0,0,0,0,0,0,0,74,
scooby_state_6a3c3b|41|1 74,0,0,0,0,0,0,0,0,0,0,0,0,0,0,74,
scooby_state_6a3cb7|56|1 74,0,0,0,0,0,0,0,0,0,0,0,0,0,0,74,
scooby_state_6a3c1b|6|1 74,0,0,0,0,0,0,0,0,0,0,0,0,0,0,74,
scooby_state_6a3c27|18|1 74,0,0,0,0,0,0,0,0,0,0,0,0,0,0,74,
scooby_state_6a3c1b|62|1 74,0,0,0,0,0,0,0,0,0,0,0,0,0,0,74,
scooby_state_6a3c4e|10|1 73,0,0,0,0,0,0,0,0,0,0,0,0,0,1,74,
scooby_state_6a3c5f|47|1 74,0,0,0,0,0,0,0,0,0,0,0,0,0,0,74,
scooby_state_6a3c64|63|1 74,0,0,0,0,0,0,0,0,0,0,0,0,0,0,74,
scooby_state_6a3c1b|5|1 73,0,0,0,0,0,0,0,0,0,0,0,0,0,1,74,
scooby_state_6a3c4e|1|1 74,0,0,0,0,0,0,0,0,0,0,0,0,0,0,74,
scooby_state_6a3cb7|19|1 74,0,0,0,0,0,0,0,0,0,0,0,0,0,0,74,
scooby_state_6a3ce0|31|1 74,0,0,0,0,0,0,0,0,0,0,0,0,0,0,74,
scooby_state_6a3c3b|38|1 74,0,0,0,0,0,0,0,0,0,0,0,0,0,0,74,
scooby_state_6a3c33|15|1 74,0,0,0,0,0,0,0,0,0,0,0,0,0,0,74,
scooby_state_6a3c64|61|1 74,0,0,0,0,0,0,0,0,0,0,0,0,0,0,74,
scooby_state_6a3cbf|11|1 74,0,0,0,0,0,0,0,0,0,0,0,0,0,0,74,
scooby_state_6a3c4e|7|1 74,0,0,0,0,0,0,0,0,0,0,0,0,0,0,74,
scooby_state_6a3cd0|60|1 74,0,0,0,0,0,0,0,0,0,0,0,0,0,0,74,
scooby_state_6a3c33|29|1 74,0,0,0,0,0,0,0,0,0,0,0,0,0,0,74,
scooby_state_6a3c48|58|1 74,0,0,0,0,0,0,0,0,0,0,0,0,0,0,74,
scooby_state_6a3c48|61|1 74,0,0,0,0,0,0,0,0,0,0,0,0,0,0,74,
scooby_state_6a3c4e|8|1 74,0,0,0,0,0,0,0,0,0,0,0,0,0,0,74,
scooby_state_6a3c1b|9|1 74,0,0,0,0,0,0,0,0,0,0,0,0,0,0,74,
scooby_state_6a3c27|7|1 74,0,0,0,0,0,0,0,0,0,0,0,0,0,0,74,
scooby_state_6a3c27|20|1 74,0,0,0,0,0,0,0,0,0,0,0,0,0,0,74,
scooby_state_6a3c5f|44|1 74,0,0,0,0,0,0,0,0,0,0,0,0,0,0,74,
scooby_state_6a3c4e|20|1 74,0,0,0,0,0,0,0,0,0,0,0,0,0,0,74,
scooby_state_6a3c3b|34|1 74,0,0,0,0,0,0,0,0,0,0,0,0,0,0,74,
scooby_state_6a3c4e|27|1 74,0,0,0,0,0,0,0,0,0,0,0,0,0,0,74,
scooby_state_6a3cbf|57|1 74,0,0,0,0,0,0,0,0,0,0,0,0,0,0,74,
scooby_state_6a3cb7|52|1 74,0,0,0,0,0,0,0,0,0,0,0,0,0,0,74,
scooby_state_6a3c48|27|1 74,0,0,0,0,0,0,0,0,0,0,0,0,0,0,74,
scooby_state_6a3c5f|53|1 74,0,0,0,0,0,0,0,0,0,0,0,0,0,0,74,
scooby_state_6a3cd0|61|1 74,0,0,0,0,0,0,0,0,0,0,0,0,0,0,74,
scooby_state_6a3cbf|3|1 74,0,0,0,0,0,0,0,0,0,0,0,0,0,0,74,
scooby_state_6a3c64|57|1 74,0,0,0,0,0,0,0,0,0,0,0,0,0,0,74,
scooby_state_6a3c3b|40|1 74,0,0,0,0,0,0,0,0,0,0,0,0,0,0,74,
scooby_state_6a3cbf|1|1 74,0,0,0,0,0,0,0,0,0,0,0,0,0,0,74,
scooby_state_6a3cb7|49|1 74,0,0,0,0,0,0,0,0,0,0,0,0,0,0,74,
scooby_state_6a3ce0|26|1 74,0,0,0,0,0,0,0,0,0,0,0,0,0,0,74,
scooby_state_6a3cd0|48|1 73,0,0,0,0,0,0,0,1,0,0,0,0,0,0,74,
scooby_state_6a3cd0|2|1 74,0,0,0,0,0,0,0,0,0,0,0,0,0,0,74,
scooby_state_6a3c4e|56|1 74,0,0,0,0,0,0,0,0,0,0,0,0,0,0,74,
scooby_state_6a3c48|3|1 74,0,0,0,0,0,0,0,0,0,0,0,0,0,0,74,
scooby_state_6a3ce0|39|1 74,0,0,0,0,0,0,0,0,0,0,0,0,0,0,74,
scooby_state_6a3c48|0|0 74,0,0,0,0,0,0,0,0,0,0,0,0,0,0,74,
scooby_state_6a3c4e|15|1 74,0,0,0,0,0,0,0,0,0,0,0,0,0,0,74,
scooby_state_6a3c1b|4|1 74,0,0,0,0,0,0,0,0,0,0,0,0,0,0,74,
scooby_state_6a3c27|45|1 74,0,0,0,0,0,0,0,0,0,0,0,0,0,0,74,
scooby_state_6a3bf7|2|1 74,0,0,0,0,0,0,0,0,0,0,0,0,0,0,74,
scooby_state_6a3c4e|9|1 74,0,0,0,0,0,0,0,0,0,0,0,0,0,0,74,
scooby_state_6a3c4e|14|1 74,0,0,0,0,0,0,0,0,0,0,0,0,0,0,74,
scooby_state_6a3c5f|33|1 74,0,0,0,0,0,0,0,0,0,0,0,0,0,0,74,
scooby_state_6a3cb7|55|1 74,0,0,0,0,0,0,0,0,0,0,0,0,0,0,74,
scooby_state_6a3c1b|54|1 74,0,0,0,0,0,0,0,0,0,0,0,0,0,0,74,
scooby_state_6a3c33|31|1 74,0,0,0,0,0,0,0,0,0,0,0,0,0,0,74,
scooby_state_6a3c5f|40|1 74,0,0,0,0,0,0,0,0,0,0,0,0,0,0,74,
scooby_state_6a3cd0|54|1 74,0,0,0,0,0,0,0,0,0,0,0,0,0,0,74,
scooby_state_6a3cd0|39|1 74,0,0,0,0,0,0,0,0,0,0,0,0,0,0,74,
scooby_state_6a3cbf|12|1 74,0,0,0,0,0,0,0,0,0,0,0,0,0,0,74,
scooby_state_6a3c1b|10|1 74,0,0,0,0,0,0,0,0,0,0,0,0,0,0,74,
scooby_state_6a3c48|2|1 74,0,0,0,0,0,0,0,0,0,0,0,0,0,0,74,
scooby_state_6a3c3b|33|1 74,0,0,0,0,0,0,0,0,0,0,0,0,0,0,74,
scooby_state_6a3c4e|13|1 74,0,0,0,0,0,0,0,0,0,0,0,0,0,0,74,
scooby_state_6a3c5f|59|1 74,0,0,0,0,0,0,0,0,0,0,0,0,0,0,74,
scooby_state_6a3c27|21|1 74,0,0,0,0,0,0,0,0,0,0,0,0,0,0,74,
scooby_state_6a3c3b|42|1 74,0,0,0,0,0,0,0,0,0,0,0,0,0,0,74,
scooby_state_6a3c48|53|1 74,0,0,0,0,0,0,0,0,0,0,0,0,0,0,74,
scooby_state_6a3c3b|47|1 74,0,0,0,0,0,0,0,0,0,0,0,0,0,0,74,
scooby_state_6a3c27|24|1 74,0,0,0,0,0,0,0,0,0,0,0,0,0,0,74,
scooby_state_6a3cb7|61|1 74,0,0,0,0,0,0,0,0,0,0,0,0,0,0,74,
scooby_state_6a3cbf|19|1 74,0,0,0,0,0,0,0,0,0,0,0,0,0,0,74,
scooby_state_6a3c1b|8|1 73,1,0,0,0,0,0,0,0,0,0,0,0,0,0,74,
scooby_state_6a3c33|53|1 74,0,0,0,0,0,0,0,0,0,0,0,0,0,0,74,
scooby_state_6a3c33|28|1 74,0,0,0,0,0,0,0,0,0,0,0,0,0,0,74,
scooby_state_6a3ce0|30|1 74,0,0,0,0,0,0,0,0,0,0,0,0,0,0,74,
scooby_state_6a3c5f|43|1 74,0,0,0,0,0,0,0,0,0,0,0,0,0,0,74,
scooby_state_6a3cb7|50|1 74,0,0,0,0,0,0,0,0,0,0,0,0,0,0,74,
scooby_state_6a3c5f|42|1 74,0,0,0,0,0,0,0,0,0,0,0,0,0,0,74,
scooby_state_6a3c3b|37|1 74,0,0,0,0,0,0,0,0,0,0,0,0,0,0,74,
scooby_state_6a3c4e|21|1 74,0,0,0,0,0,0,0,0,0,0,0,0,0,0,74,
scooby_state_6a3c5f|0|0 74,0,0,0,0,0,0,0,0,0,0,0,0,0,0,74,
scooby_state_6a3cd0|3|1 74,0,0,0,0,0,0,0,0,0,0,0,0,0,0,74,
scooby_state_6a3c48|4|1 74,0,0,0,0,0,0,0,0,0,0,0,0,0,0,74,
scooby_state_6a3cd0|4|1 74,0,0,0,0,0,0,0,0,0,0,0,0,0,0,74,
scooby_state_6a3c33|19|1 73,0,0,0,0,0,0,0,0,0,0,0,0,0,1,74,
scooby_state_6a3cb7|58|1 74,0,0,0,0,0,0,0,0,0,0,0,0,0,0,74,
scooby_state_6a3c3b|35|1 74,0,0,0,0,0,0,0,0,0,0,0,0,0,0,74,
scooby_state_6a3c3b|45|1 74,0,0,0,0,0,0,0,0,0,0,0,0,0,0,74,
scooby_state_6a3c64|54|1 74,0,0,0,0,0,0,0,0,0,0,0,0,0,0,74,
scooby_state_6a3c4e|17|1 74,0,0,0,0,0,0,0,0,0,0,0,0,0,0,74,
scooby_state_6a3cd0|59|1 74,0,0,0,0,0,0,0,0,0,0,0,0,0,0,74,
scooby_state_6a3ce0|42|1 74,0,0,0,0,0,0,0,0,0,0,0,0,0,0,74,
scooby_state_6a3cb7|59|1 74,0,0,0,0,0,0,0,0,0,0,0,0,0,0,74,
scooby_state_6a3c33|23|1 74,0,0,0,0,0,0,0,0,0,0,0,0,0,0,74,
scooby_state_6a3c3b|27|1 74,0,0,0,0,0,0,0,0,0,0,0,0,0,0,74,
scooby_state_6a3cbf|48|1 73,0,0,0,0,0,0,0,0,0,0,0,0,0,1,74,
scooby_state_6a3cd0|63|1 74,0,0,0,0,0,0,0,0,0,0,0,0,0,0,74,
scooby_state_6a3c1b|45|1 73,0,0,0,0,0,0,0,0,0,0,0,0,0,1,74,
scooby_state_6a3c27|22|1 74,0,0,0,0,0,0,0,0,0,0,0,0,0,0,74,
scooby_state_6a3ce0|41|1 74,0,0,0,0,0,0,0,0,0,0,0,0,0,0,74,
scooby_state_6a3cd0|57|1 74,0,0,0,0,0,0,0,0,0,0,0,0,0,0,74,
scooby_state_6a3c1b|1|1 74,0,0,0,0,0,0,0,0,0,0,0,0,0,0,74,
scooby_state_6a3c4e|19|1 74,0,0,0,0,0,0,0,0,0,0,0,0,0,0,74,
scooby_state_6a3c4e|12|1 74,0,0,0,0,0,0,0,0,0,0,0,0,0,0,74,
scooby_state_6a3c5f|39|1 74,0,0,0,0,0,0,0,0,0,0,0,0,0,0,74,
scooby_state_6a3cb7|53|1 74,0,0,0,0,0,0,0,0,0,0,0,0,0,0,74,
scooby_state_6a3cd0|58|1 74,0,0,0,0,0,0,0,0,0,0,0,0,0,0,74,
scooby_state_6a3cd0|26|1 73,0,0,0,0,0,0,0,0,0,0,0,0,0,0,73,
scooby_state_6a3c5f|8|1 72,0,0,0,0,0,0,1,0,0,0,0,0,0,0,73,
scooby_state_6a3cd0|37|1 73,0,0,0,0,0,0,0,0,0,0,0,0,0,0,73,
scooby_state_6a3c64|20|1 73,0,0,0,0,0,0,0,0,0,0,0,0,0,0,73,
scooby_state_6a3beb|4|1 73,0,0,0,0,0,0,0,0,0,0,0,0,0,0,73,
scooby_state_6a3c3b|58|1 73,0,0,0,0,0,0,0,0,0,0,0,0,0,0,73,
scooby_state_6a3c5f|54|1 73,0,0,0,0,0,0,0,0,0,0,0,0,0,0,73,
scooby_state_6a3cd0|38|1 73,0,0,0,0,0,0,0,0,0,0,0,0,0,0,73,
scooby_state_6a3cd0|25|1 73,0,0,0,0,0,0,0,0,0,0,0,0,0,0,73,
scooby_state_6a3c1b|14|1 73,0,0,0,0,0,0,0,0,0,0,0,0,0,0,73,
scooby_state_6a3c48|9|1 73,0,0,0,0,0,0,0,0,0,0,0,0,0,0,73,
scooby_state_6a3c3b|14|1 73,0,0,0,0,0,0,0,0,0,0,0,0,0,0,73,
scooby_state_6a3c4e|60|1 72,0,0,0,0,0,0,0,0,0,1,0,0,0,0,73,
scooby_state_6a3c4e|34|1 73,0,0,0,0,0,0,0,0,0,0,0,0,0,0,73,
scooby_state_6a3c5f|20|1 73,0,0,0,0,0,0,0,0,0,0,0,0,0,0,73,
scooby_state_6a3c48|12|1 73,0,0,0,0,0,0,0,0,0,0,0,0,0,0,73,
scooby_state_6a3cbf|42|1 73,0,0,0,0,0,0,0,0,0,0,0,0,0,0,73,
scooby_state_6a3c27|50|1 73,0,0,0,0,0,0,0,0,0,0,0,0,0,0,73,
scooby_state_6a3c1b|41|1 72,0,0,0,0,0,0,0,0,0,1,0,0,0,0,73,
scooby_state_6a3cb7|23|1 73,0,0,0,0,0,0,0,0,0,0,0,0,0,0,73,
scooby_state_6a3c5f|28|1 73,0,0,0,0,0,0,0,0,0,0,0,0,0,0,73,
scooby_state_6a3c33|42|1 72,0,0,0,0,1,0,0,0,0,0,0,0,0,0,73,
scooby_state_6a3c48|19|1 72,0,0,1,0,0,0,0,0,0,0,0,0,0,0,73,
scooby_state_6a3c33|63|1 73,0,0,0,0,0,0,0,0,0,0,0,0,0,0,73,
scooby_state_6a3c48|28|1 72,0,1,0,0,0,0,0,0,0,0,0,0,0,0,73,
scooby_state_6a3c1b|37|1 73,0,0,0,0,0,0,0,0,0,0,0,0,0,0,73,
scooby_state_6a3beb|43|1 72,0,0,0,0,0,0,0,0,1,0,0,0,0,0,73,
scooby_state_6a3c48|46|1 72,0,0,0,0,0,0,0,0,0,0,1,0,0,0,73,
scooby_state_6a3cb7|38|1 72,0,0,0,1,0,0,0,0,0,0,0,0,0,0,73,
scooby_state_6a3cd0|43|1 73,0,0,0,0,0,0,0,0,0,0,0,0,0,0,73,
scooby_state_6a3c4e|44|1 73,0,0,0,0,0,0,0,0,0,0,0,0,0,0,73,
scooby_state_6a3c64|18|1 73,0,0,0,0,0,0,0,0,0,0,0,0,0,0,73,
scooby_state_6a3cbf|43|1 73,0,0,0,0,0,0,0,0,0,0,0,0,0,0,73,
scooby_state_6a3cb7|25|1 73,0,0,0,0,0,0,0,0,0,0,0,0,0,0,73,
scooby_state_6a3cbf|52|1 72,0,0,0,0,0,0,0,0,1,0,0,0,0,0,73,
scooby_state_6a3bf7|4|1 73,0,0,0,0,0,0,0,0,0,0,0,0,0,0,73,
scooby_state_6a3cb7|33|1 73,0,0,0,0,0,0,0,0,0,0,0,0,0,0,73,
scooby_state_6a3c3b|22|1 73,0,0,0,0,0,0,0,0,0,0,0,0,0,0,73,
scooby_state_6a3c5f|17|1 73,0,0,0,0,0,0,0,0,0,0,0,0,0,0,73,
scooby_state_6a3c5f|5|1 73,0,0,0,0,0,0,0,0,0,0,0,0,0,0,73,
scooby_state_6a3c48|16|1 73,0,0,0,0,0,0,0,0,0,0,0,0,0,0,73,
scooby_state_6a3c27|58|1 73,0,0,0,0,0,0,0,0,0,0,0,0,0,0,73,
scooby_state_6a3c48|31|1 73,0,0,0,0,0,0,0,0,0,0,0,0,0,0,73,
scooby_state_6a3cd0|35|1 73,0,0,0,0,0,0,0,0,0,0,0,0,0,0,73,
scooby_state_6a3c27|59|1 73,0,0,0,0,0,0,0,0,0,0,0,0,0,0,73,
scooby_state_6a3c64|25|1 73,0,0,0,0,0,0,0,0,0,0,0,0,0,0,73,
scooby_state_6a3c1b|49|1 73,0,0,0,0,0,0,0,0,0,0,0,0,0,0,73,
scooby_state_6a3c1b|35|1 73,0,0,0,0,0,0,0,0,0,0,0,0,0,0,73,
scooby_state_6a3c3b|8|1 73,0,0,0,0,0,0,0,0,0,0,0,0,0,0,73,
scooby_state_6a3ce0|47|1 73,0,0,0,0,0,0,0,0,0,0,0,0,0,0,73,
scooby_state_6a3c5f|60|1 73,0,0,0,0,0,0,0,0,0,0,0,0,0,0,73,
scooby_state_6a3c33|8|1 73,0,0,0,0,0,0,0,0,0,0,0,0,0,0,73,
scooby_state_6a3c64|11|1 73,0,0,0,0,0,0,0,0,0,0,0,0,0,0,73,
scooby_state_6a3c27|40|1 73,0,0,0,0,0,0,0,0,0,0,0,0,0,0,73,
scooby_state_6a3ce0|11|1 73,0,0,0,0,0,0,0,0,0,0,0,0,0,0,73,
scooby_state_6a3c4e|46|1 73,0,0,0,0,0,0,0,0,0,0,0,0,0,0,73,
scooby_state_6a3cbf|50|1 73,0,0,0,0,0,0,0,0,0,0,0,0,0,0,73,
scooby_state_6a3c3b|20|1 73,0,0,0,0,0,0,0,0,0,0,0,0,0,0,73,
scooby_state_6a3cd0|12|1 73,0,0,0,0,0,0,0,0,0,0,0,0,0,0,73,
scooby_state_6a3cbf|26|1 73,0,0,0,0,0,0,0,0,0,0,0,0,0,0,73,
scooby_state_6a3c27|47|1 73,0,0,0,0,0,0,0,0,0,0,0,0,0,0,73,
scooby_state_6a3c4e|40|1 73,0,0,0,0,0,0,0,0,0,0,0,0,0,0,73,
scooby_state_6a3c48|44|1 73,0,0,0,0,0,0,0,0,0,0,0,0,0,0,73,
scooby_state_6a3c64|62|1 73,0,0,0,0,0,0,0,0,0,0,0,0,0,0,73,
scooby_state_6a3cb7|4|1 73,0,0,0,0,0,0,0,0,0,0,0,0,0,0,73,
scooby_state_6a3c4e|52|1 73,0,0,0,0,0,0,0,0,0,0,0,0,0,0,73,
scooby_state_6a3cb7|36|1 73,0,0,0,0,0,0,0,0,0,0,0,0,0,0,73,
scooby_state_6a3cb7|18|1 73,0,0,0,0,0,0,0,0,0,0,0,0,0,0,73,
scooby_state_6a3cbf|36|1 72,0,0,0,0,0,0,1,0,0,0,0,0,0,0,73,
scooby_state_6a3cd0|27|1 73,0,0,0,0,0,0,0,0,0,0,0,0,0,0,73,
scooby_state_6a3c27|56|1 73,0,0,0,0,0,0,0,0,0,0,0,0,0,0,73,
scooby_state_6a3c3b|6|1 73,0,0,0,0,0,0,0,0,0,0,0,0,0,0,73,
scooby_state_6a3cbf|20|1 73,0,0,0,0,0,0,0,0,0,0,0,0,0,0,73,
scooby_state_6a3c4e|22|1 73,0,0,0,0,0,0,0,0,0,0,0,0,0,0,73,
scooby_state_6a3cd0|41|1 73,0,0,0,0,0,0,0,0,0,0,0,0,0,0,73,
scooby_state_6a3c33|57|1 73,0,0,0,0,0,0,0,0,0,0,0,0,0,0,73,
scooby_state_6a3ce0|52|1 73,0,0,0,0,0,0,0,0,0,0,0,0,0,0,73,
scooby_state_6a3c64|26|1 73,0,0,0,0,0,0,0,0,0,0,0,0,0,0,73,
scooby_state_6a3c5f|26|1 73,0,0,0,0,0,0,0,0,0,0,0,0,0,0,73,
scooby_state_6a3c1b|32|1 73,0,0,0,0,0,0,0,0,0,0,0,0,0,0,73,
scooby_state_6a3c48|45|1 73,0,0,0,0,0,0,0,0,0,0,0,0,0,0,73,
scooby_state_6a3c4e|31|1 73,0,0,0,0,0,0,0,0,0,0,0,0,0,0,73,
scooby_state_6a3c27|60|1 73,0,0,0,0,0,0,0,0,0,0,0,0,0,0,73,
scooby_state_6a3c33|34|1 73,0,0,0,0,0,0,0,0,0,0,0,0,0,0,73,
scooby_state_6a3ce0|16|1 73,0,0,0,0,0,0,0,0,0,0,0,0,0,0,73,
scooby_state_6a3cb7|35|1 73,0,0,0,0,0,0,0,0,0,0,0,0,0,0,73,
scooby_state_6a3c27|30|1 73,0,0,0,0,0,0,0,0,0,0,0,0,0,0,73,
scooby_state_6a3cd0|44|1 73,0,0,0,0,0,0,0,0,0,0,0,0,0,0,73,
scooby_state_6a3c5f|10|1 73,0,0,0,0,0,0,0,0,0,0,0,0,0,0,73,
scooby_state_6a3cd0|23|1 73,0,0,0,0,0,0,0,0,0,0,0,0,0,0,73,
scooby_state_6a3cb7|30|1 73,0,0,0,0,0,0,0,0,0,0,0,0,0,0,73,
scooby_state_6a3c33|54|1 72,0,1,0,0,0,0,0,0,0,0,0,0,0,0,73,
scooby_state_6a3cd0|29|1 73,0,0,0,0,0,0,0,0,0,0,0,0,0,0,73,
scooby_state_6a3c1b|28|1 73,0,0,0,0,0,0,0,0,0,0,0,0,0,0,73,
scooby_state_6a3ce0|44|1 72,0,0,0,0,0,0,0,1,0,0,0,0,0,0,73,
scooby_state_6a3c64|29|1 73,0,0,0,0,0,0,0,0,0,0,0,0,0,0,73,
scooby_state_6a3c64|28|1 73,0,0,0,0,0,0,0,0,0,0,0,0,0,0,73,
scooby_state_6a3cb7|3|1 73,0,0,0,0,0,0,0,0,0,0,0,0,0,0,73,
scooby_state_6a3c48|38|1 73,0,0,0,0,0,0,0,0,0,0,0,0,0,0,73,
scooby_state_6a3c3b|51|1 73,0,0,0,0,0,0,0,0,0,0,0,0,0,0,73,
scooby_state_6a3cd0|1|1 73,0,0,0,0,0,0,0,0,0,0,0,0,0,0,73,
scooby_state_6a3ce0|7|1 73,0,0,0,0,0,0,0,0,0,0,0,0,0,0,73,
scooby_state_6a3ce0|5|1 73,0,0,0,0,0,0,0,0,0,0,0,0,0,0,73,
scooby_state_6a3c33|33|1 73,0,0,0,0,0,0,0,0,0,0,0,0,0,0,73,
scooby_state_6a3c33|7|1 73,0,0,0,0,0,0,0,0,0,0,0,0,0,0,73,
scooby_state_6a3c3b|7|1 73,0,0,0,0,0,0,0,0,0,0,0,0,0,0,73,
scooby_state_6a3cb7|17|1 73,0,0,0,0,0,0,0,0,0,0,0,0,0,0,73,
scooby_state_6a3c1b|44|1 72,0,0,0,1,0,0,0,0,0,0,0,0,0,0,73,
scooby_state_6a3ce0|50|1 72,0,0,1,0,0,0,0,0,0,0,0,0,0,0,73,
scooby_state_6a3cbf|37|1 73,0,0,0,0,0,0,0,0,0,0,0,0,0,0,73,
scooby_state_6a3cd0|28|1 73,0,0,0,0,0,0,0,0,0,0,0,0,0,0,73,
scooby_state_6a3c4e|45|1 73,0,0,0,0,0,0,0,0,0,0,0,0,0,0,73,
scooby_state_6a3c48|8|1 73,0,0,0,0,0,0,0,0,0,0,0,0,0,0,73,
scooby_state_6a3c27|49|1 73,0,0,0,0,0,0,0,0,0,0,0,0,0,0,73,
scooby_state_6a3ce0|17|1 73,0,0,0,0,0,0,0,0,0,0,0,0,0,0,73,
scooby_state_6a3c5f|13|1 73,0,0,0,0,0,0,0,0,0,0,0,0,0,0,73,
scooby_state_6a3cbf|24|1 73,0,0,0,0,0,0,0,0,0,0,0,0,0,0,73,
scooby_state_6a3c64|31|1 73,0,0,0,0,0,0,0,0,0,0,0,0,0,0,73,
scooby_state_6a3c33|6|1 73,0,0,0,0,0,0,0,0,0,0,0,0,0,0,73,
scooby_state_6a3c1b|47|1 72,0,0,0,0,0,0,0,0,1,0,0,0,0,0,73,
scooby_state_6a3cb7|15|1 73,0,0,0,0,0,0,0,0,0,0,0,0,0,0,73,
scooby_state_6a3cb7|6|1 73,0,0,0,0,0,0,0,0,0,0,0,0,0,0,73,
scooby_state_6a3c48|34|1 72,0,0,0,0,0,0,0,1,0,0,0,0,0,0,73,
scooby_state_6a3c3b|10|1 73,0,0,0,0,0,0,0,0,0,0,0,0,0,0,73,
scooby_state_6a3c48|15|1 73,0,0,0,0,0,0,0,0,0,0,0,0,0,0,73,
scooby_state_6a3cb7|26|1 73,0,0,0,0,0,0,0,0,0,0,0,0,0,0,73,
scooby_state_6a3c4e|50|1 71,1,0,0,0,0,0,0,0,0,0,0,0,1,0,73,
scooby_state_6a3cd0|21|1 73,0,0,0,0,0,0,0,0,0,0,0,0,0,0,73,
scooby_state_6a3c64|38|1 73,0,0,0,0,0,0,0,0,0,0,0,0,0,0,73,
scooby_state_6a3cb7|63|1 73,0,0,0,0,0,0,0,0,0,0,0,0,0,0,73,
scooby_state_6a3c33|38|1 73,0,0,0,0,0,0,0,0,0,0,0,0,0,0,73,
scooby_state_6a3c27|1|1 73,0,0,0,0,0,0,0,0,0,0,0,0,0,0,73,
scooby_state_6a3c33|40|1 73,0,0,0,0,0,0,0,0,0,0,0,0,0,0,73,
scooby_state_6a3c1b|31|1 73,0,0,0,0,0,0,0,0,0,0,0,0,0,0,73,
scooby_state_6a3c64|39|1 73,0,0,0,0,0,0,0,0,0,0,0,0,0,0,73,
scooby_state_6a3c27|34|1 73,0,0,0,0,0,0,0,0,0,0,0,0,0,0,73,
scooby_state_6a3c3b|17|1 73,0,0,0,0,0,0,0,0,0,0,0,0,0,0,73,
scooby_state_6a3c3b|11|1 73,0,0,0,0,0,0,0,0,0,0,0,0,0,0,73,
scooby_state_6a3ce0|14|1 73,0,0,0,0,0,0,0,0,0,0,0,0,0,0,73,
scooby_state_6a3c4e|48|1 73,0,0,0,0,0,0,0,0,0,0,0,0,0,0,73,
scooby_state_6a3c5f|16|1 73,0,0,0,0,0,0,0,0,0,0,0,0,0,0,73,
scooby_state_6a3c27|51|1 73,0,0,0,0,0,0,0,0,0,0,0,0,0,0,73,
scooby_state_6a3c33|59|1 72,0,0,0,0,0,0,0,0,0,0,0,0,1,0,73,
scooby_state_6a3c33|60|1 73,0,0,0,0,0,0,0,0,0,0,0,0,0,0,73,
scooby_state_6a3cbf|40|1 73,0,0,0,0,0,0,0,0,0,0,0,0,0,0,73,
scooby_state_6a3c27|35|1 73,0,0,0,0,0,0,0,0,0,0,0,0,0,0,73,
scooby_state_6a3c5f|11|1 73,0,0,0,0,0,0,0,0,0,0,0,0,0,0,73,
scooby_state_6a3cbf|32|1 73,0,0,0,0,0,0,0,0,0,0,0,0,0,0,73,
scooby_state_6a3cd0|24|1 73,0,0,0,0,0,0,0,0,0,0,0,0,0,0,73,
scooby_state_6a3c48|33|1 73,0,0,0,0,0,0,0,0,0,0,0,0,0,0,73,
scooby_state_6a3c64|40|1 73,0,0,0,0,0,0,0,0,0,0,0,0,0,0,73,
scooby_state_6a3c33|47|1 72,0,0,0,0,0,0,1,0,0,0,0,0,0,0,73,
scooby_state_6a3cbf|10|1 73,0,0,0,0,0,0,0,0,0,0,0,0,0,0,73,
scooby_state_6a3c48|26|1 73,0,0,0,0,0,0,0,0,0,0,0,0,0,0,73,
scooby_state_6a3c64|23|1 73,0,0,0,0,0,0,0,0,0,0,0,0,0,0,73,
scooby_state_6a3c27|32|1 73,0,0,0,0,0,0,0,0,0,0,0,0,0,0,73,
scooby_state_6a3cd0|33|1 73,0,0,0,0,0,0,0,0,0,0,0,0,0,0,73,
scooby_state_6a3c5f|12|1 73,0,0,0,0,0,0,0,0,0,0,0,0,0,0,73,
scooby_state_6a3c1b|39|1 73,0,0,0,0,0,0,0,0,0,0,0,0,0,0,73,
scooby_state_6a3c27|38|1 73,0,0,0,0,0,0,0,0,0,0,0,0,0,0,73,
scooby_state_6a3c5f|2|1 72,0,0,0,0,0,0,0,0,1,0,0,0,0,0,73,
scooby_state_6a3c3b|52|1 73,0,0,0,0,0,0,0,0,0,0,0,0,0,0,73,
scooby_state_6a3cb7|11|1 73,0,0,0,0,0,0,0,0,0,0,0,0,0,0,73,
scooby_state_6a3c5f|18|1 73,0,0,0,0,0,0,0,0,0,0,0,0,0,0,73,
scooby_state_6a3c48|35|1 73,0,0,0,0,0,0,0,0,0,0,0,0,0,0,73,
scooby_state_6a3c64|14|1 73,0,0,0,0,0,0,0,0,0,0,0,0,0,0,73,
scooby_state_6a3c33|21|1 73,0,0,0,0,0,0,0,0,0,0,0,0,0,0,73,
scooby_state_6a3cb7|8|1 73,0,0,0,0,0,0,0,0,0,0,0,0,0,0,73,
scooby_state_6a3c48|13|1 73,0,0,0,0,0,0,0,0,0,0,0,0,0,0,73,
scooby_state_6a3c4e|23|1 73,0,0,0,0,0,0,0,0,0,0,0,0,0,0,73,
scooby_state_6a3c48|41|1 73,0,0,0,0,0,0,0,0,0,0,0,0,0,0,73,
scooby_state_6a3cd0|6|1 73,0,0,0,0,0,0,0,0,0,0,0,0,0,0,73,
scooby_state_6a3c5f|1|1 73,0,0,0,0,0,0,0,0,0,0,0,0,0,0,73,
scooby_state_6a3c1b|30|1 73,0,0,0,0,0,0,0,0,0,0,0,0,0,0,73,
scooby_state_6a3c27|25|1 73,0,0,0,0,0,0,0,0,0,0,0,0,0,0,73,
scooby_state_6a3bf7|6|1 73,0,0,0,0,0,0,0,0,0,0,0,0,0,0,73,
scooby_state_6a3c64|32|1 73,0,0,0,0,0,0,0,0,0,0,0,0,0,0,73,
scooby_state_6a3cb7|5|1 73,0,0,0,0,0,0,0,0,0,0,0,0,0,0,73,
scooby_state_6a3beb|1|1 73,0,0,0,0,0,0,0,0,0,0,0,0,0,0,73,
scooby_state_6a3c5f|23|1 73,0,0,0,0,0,0,0,0,0,0,0,0,0,0,73,
scooby_state_6a3cd0|8|1 73,0,0,0,0,0,0,0,0,0,0,0,0,0,0,73,
scooby_state_6a3c1b|18|1 73,0,0,0,0,0,0,0,0,0,0,0,0,0,0,73,
scooby_state_6a3cb7|0|0 73,0,0,0,0,0,0,0,0,0,0,0,0,0,0,73,
scooby_state_6a3c1b|27|1 73,0,0,0,0,0,0,0,0,0,0,0,0,0,0,73,
scooby_state_6a3c64|56|1 73,0,0,0,0,0,0,0,0,0,0,0,0,0,0,73,
scooby_state_6a3c64|44|1 72,0,0,0,0,0,0,1,0,0,0,0,0,0,0,73,
scooby_state_6a3cd0|5|1 73,0,0,0,0,0,0,0,0,0,0,0,0,0,0,73,
scooby_state_6a3c3b|13|1 73,0,0,0,0,0,0,0,0,0,0,0,0,0,0,73,
scooby_state_6a3c33|5|1 73,0,0,0,0,0,0,0,0,0,0,0,0,0,0,73,
scooby_state_6a3cb7|29|1 72,0,0,0,0,0,0,0,0,0,0,1,0,0,0,73,
scooby_state_6a3ce0|20|1 73,0,0,0,0,0,0,0,0,0,0,0,0,0,0,73,
scooby_state_6a3c64|22|1 73,0,0,0,0,0,0,0,0,0,0,0,0,0,0,73,
scooby_state_6a3c64|13|1 73,0,0,0,0,0,0,0,0,0,0,0,0,0,0,73,
scooby_state_6a3c33|9|1 73,0,0,0,0,0,0,0,0,0,0,0,0,0,0,73,
scooby_state_6a3c5f|50|1 73,0,0,0,0,0,0,0,0,0,0,0,0,0,0,73,
scooby_state_6a3c1b|38|1 73,0,0,0,0,0,0,0,0,0,0,0,0,0,0,73,
scooby_state_6a3c48|32|1 73,0,0,0,0,0,0,0,0,0,0,0,0,0,0,73,
scooby_state_6a3c48|47|1 73,0,0,0,0,0,0,0,0,0,0,0,0,0,0,73,
scooby_state_6a3c64|36|1 73,0,0,0,0,0,0,0,0,0,0,0,0,0,0,73,
scooby_state_6a3c4e|58|1 72,0,0,0,0,0,0,0,0,0,0,1,0,0,0,73,
scooby_state_6a3c64|16|1 73,0,0,0,0,0,0,0,0,0,0,0,0,0,0,73,
scooby_state_6a3c48|14|1 73,0,0,0,0,0,0,0,0,0,0,0,0,0,0,73,
scooby_state_6a3cb7|57|1 73,0,0,0,0,0,0,0,0,0,0,0,0,0,0,73,
scooby_state_6a3c3b|23|1 73,0,0,0,0,0,0,0,0,0,0,0,0,0,0,73,
scooby_state_6a3c64|34|1 73,0,0,0,0,0,0,0,0,0,0,0,0,0,0,73,
scooby_state_6a3c3b|55|1 72,0,0,0,0,0,0,0,0,0,0,1,0,0,0,73,
scooby_state_6a3c1b|50|1 72,0,0,0,0,0,1,0,0,0,0,0,0,0,0,73,
scooby_state_6a3cbf|53|1 73,0,0,0,0,0,0,0,0,0,0,0,0,0,0,73,
scooby_state_6a3c4e|61|1 73,0,0,0,0,0,0,0,0,0,0,0,0,0,0,73,
scooby_state_6a3c1b|7|1 73,0,0,0,0,0,0,0,0,0,0,0,0,0,0,73,
scooby_state_6a3beb|37|1 73,0,0,0,0,0,0,0,0,0,0,0,0,0,0,73,
scooby_state_6a3c4e|49|1 73,0,0,0,0,0,0,0,0,0,0,0,0,0,0,73,
scooby_state_6a3c33|51|1 73,0,0,0,0,0,0,0,0,0,0,0,0,0,0,73,
scooby_state_6a3c27|33|1 73,0,0,0,0,0,0,0,0,0,0,0,0,0,0,73,
scooby_state_6a3cb7|7|1 73,0,0,0,0,0,0,0,0,0,0,0,0,0,0,73,
scooby_state_6a3c5f|29|1 73,0,0,0,0,0,0,0,0,0,0,0,0,0,0,73,
scooby_state_6a3c27|31|1 73,0,0,0,0,0,0,0,0,0,0,0,0,0,0,73,
scooby_state_6a3c33|4|1 72,0,0,0,0,0,0,0,0,0,0,0,0,1,0,73,
scooby_state_6a3c5f|19|1 73,0,0,0,0,0,0,0,0,0,0,0,0,0,0,73,
scooby_state_6a3cbf|33|1 73,0,0,0,0,0,0,0,0,0,0,0,0,0,0,73,
scooby_state_6a3ce0|53|1 73,0,0,0,0,0,0,0,0,0,0,0,0,0,0,73,
scooby_state_6a3c48|29|1 73,0,0,0,0,0,0,0,0,0,0,0,0,0,0,73,
scooby_state_6a3cd0|11|1 73,0,0,0,0,0,0,0,0,0,0,0,0,0,0,73,
scooby_state_6a3cb7|39|1 73,0,0,0,0,0,0,0,0,0,0,0,0,0,0,73,
scooby_state_6a3c27|55|1 73,0,0,0,0,0,0,0,0,0,0,0,0,0,0,73,
scooby_state_6a3c3b|48|1 72,0,0,0,0,0,0,0,0,0,0,0,0,0,1,73,
scooby_state_6a3cd0|34|1 73,0,0,0,0,0,0,0,0,0,0,0,0,0,0,73,
scooby_state_6a3c3b|2|1 73,0,0,0,0,0,0,0,0,0,0,0,0,0,0,73,
scooby_state_6a3c33|45|1 73,0,0,0,0,0,0,0,0,0,0,0,0,0,0,73,
scooby_state_6a3cbf|44|1 73,0,0,0,0,0,0,0,0,0,0,0,0,0,0,73,
scooby_state_6a3ce0|56|1 73,0,0,0,0,0,0,0,0,0,0,0,0,0,0,73,
scooby_state_6a3cbf|49|1 73,0,0,0,0,0,0,0,0,0,0,0,0,0,0,73,
scooby_state_6a3c33|52|1 73,0,0,0,0,0,0,0,0,0,0,0,0,0,0,73,
scooby_state_6a3ce0|19|1 73,0,0,0,0,0,0,0,0,0,0,0,0,0,0,73,
scooby_state_6a3c48|17|1 72,0,1,0,0,0,0,0,0,0,0,0,0,0,0,73,
scooby_state_6a3c4e|51|1 73,0,0,0,0,0,0,0,0,0,0,0,0,0,0,73,
scooby_state_6a3c1b|24|1 73,0,0,0,0,0,0,0,0,0,0,0,0,0,0,73,
scooby_state_6a3c33|39|1 73,0,0,0,0,0,0,0,0,0,0,0,0,0,0,73,
scooby_state_6a3c1b|40|1 73,0,0,0,0,0,0,0,0,0,0,0,0,0,0,73,
scooby_state_6a3cb7|51|1 73,0,0,0,0,0,0,0,0,0,0,0,0,0,0,73,
scooby_state_6a3beb|8|1 73,0,0,0,0,0,0,0,0,0,0,0,0,0,0,73,
scooby_state_6a3ce0|48|1 73,0,0,0,0,0,0,0,0,0,0,0,0,0,0,73,
scooby_state_6a3c1b|34|1 73,0,0,0,0,0,0,0,0,0,0,0,0,0,0,73,
scooby_state_6a3c27|13|1 73,0,0,0,0,0,0,0,0,0,0,0,0,0,0,73,
scooby_state_6a3ce0|12|1 73,0,0,0,0,0,0,0,0,0,0,0,0,0,0,73,
scooby_state_6a3c48|1|1 73,0,0,0,0,0,0,0,0,0,0,0,0,0,0,73,
scooby_state_6a3c27|52|1 73,0,0,0,0,0,0,0,0,0,0,0,0,0,0,73,
scooby_state_6a3cd0|32|1 73,0,0,0,0,0,0,0,0,0,0,0,0,0,0,73,
scooby_state_6a3c5f|7|1 73,0,0,0,0,0,0,0,0,0,0,0,0,0,0,73,
scooby_state_6a3c27|28|1 73,0,0,0,0,0,0,0,0,0,0,0,0,0,0,73,
scooby_state_6a3c33|61|1 73,0,0,0,0,0,0,0,0,0,0,0,0,0,0,73,
scooby_state_6a3c1b|22|1 72,0,0,0,0,0,0,0,0,0,0,0,1,0,0,73,
scooby_state_6a3c5f|6|1 73,0,0,0,0,0,0,0,0,0,0,0,0,0,0,73,
scooby_state_6a3c1b|23|1 72,0,0,0,0,1,0,0,0,0,0,0,0,0,0,73,
scooby_state_6a3ce0|4|1 73,0,0,0,0,0,0,0,0,0,0,0,0,0,0,73,
scooby_state_6a3ce0|38|1 73,0,0,0,0,0,0,0,0,0,0,0,0,0,0,73,
scooby_state_6a3c64|6|1 73,0,0,0,0,0,0,0,0,0,0,0,0,0,0,73,
scooby_state_6a3c1b|20|1 73,0,0,0,0,0,0,0,0,0,0,0,0,0,0,73,
scooby_state_6a3c8b|0|0 73,0,0,0,0,0,0,0,0,0,0,0,0,0,0,73,
scooby_state_6a3ce0|57|1 73,0,0,0,0,0,0,0,0,0,0,0,0,0,0,73,
scooby_state_6a3c33|46|1 72,0,0,0,0,0,0,1,0,0,0,0,0,0,0,73,
scooby_state_6a3cb7|12|1 73,0,0,0,0,0,0,0,0,0,0,0,0,0,0,73,
scooby_state_6a3c48|20|1 73,0,0,0,0,0,0,0,0,0,0,0,0,0,0,73,
scooby_state_6a3c64|17|1 73,0,0,0,0,0,0,0,0,0,0,0,0,0,0,73,
scooby_state_6a3cd0|18|1 72,1,0,0,0,0,0,0,0,0,0,0,0,0,0,73,
scooby_state_6a3c4e|43|1 73,0,0,0,0,0,0,0,0,0,0,0,0,0,0,73,
scooby_state_6a3c33|27|1 73,0,0,0,0,0,0,0,0,0,0,0,0,0,0,73,
scooby_state_6a3c48|42|1 73,0,0,0,0,0,0,0,0,0,0,0,0,0,0,73,
scooby_state_6a3cd0|17|1 73,0,0,0,0,0,0,0,0,0,0,0,0,0,0,73,
scooby_state_6a3c48|43|1 73,0,0,0,0,0,0,0,0,0,0,0,0,0,0,73,
scooby_state_6a3c48|37|1 73,0,0,0,0,0,0,0,0,0,0,0,0,0,0,73,
scooby_state_6a3c33|36|1 73,0,0,0,0,0,0,0,0,0,0,0,0,0,0,73,
scooby_state_6a3c3b|59|1 73,0,0,0,0,0,0,0,0,0,0,0,0,0,0,73,
scooby_state_6a3c3b|3|1 73,0,0,0,0,0,0,0,0,0,0,0,0,0,0,73,
scooby_state_6a3c64|4|1 73,0,0,0,0,0,0,0,0,0,0,0,0,0,0,73,
scooby_state_6a3bf7|5|1 73,0,0,0,0,0,0,0,0,0,0,0,0,0,0,73,
scooby_state_6a3c27|43|1 73,0,0,0,0,0,0,0,0,0,0,0,0,0,0,73,
scooby_state_6a3cbf|14|1 73,0,0,0,0,0,0,0,0,0,0,0,0,0,0,73,
scooby_state_6a3cbf|41|1 73,0,0,0,0,0,0,0,0,0,0,0,0,0,0,73,
scooby_state_6a3bf7|52|1 73,0,0,0,0,0,0,0,0,0,0,0,0,0,0,73,
scooby_state_6a3c64|30|1 73,0,0,0,0,0,0,0,0,0,0,0,0,0,0,73,
scooby_state_6a3c4e|26|1 73,0,0,0,0,0,0,0,0,0,0,0,0,0,0,73,
scooby_state_6a3ce0|1|1 73,0,0,0,0,0,0,0,0,0,0,0,0,0,0,73,
scooby_state_6a3c27|39|1 72,0,0,1,0,0,0,0,0,0,0,0,0,0,0,73,
scooby_state_6a3beb|7|1 73,0,0,0,0,0,0,0,0,0,0,0,0,0,0,73,
scooby_state_6a3ce0|32|1 73,0,0,0,0,0,0,0,0,0,0,0,0,0,0,73,
scooby_state_6a3beb|2|1 73,0,0,0,0,0,0,0,0,0,0,0,0,0,0,73,
scooby_state_6a3ce0|46|1 73,0,0,0,0,0,0,0,0,0,0,0,0,0,0,73,
scooby_state_6a3c5f|55|1 73,0,0,0,0,0,0,0,0,0,0,0,0,0,0,73,
scooby_state_6a3c27|37|1 73,0,0,0,0,0,0,0,0,0,0,0,0,0,0,73,
scooby_state_6a3c64|37|1 73,0,0,0,0,0,0,0,0,0,0,0,0,0,0,73,
scooby_state_6a3c3b|1|1 73,0,0,0,0,0,0,0,0,0,0,0,0,0,0,73,
scooby_state_6a3c4e|54|1 73,0,0,0,0,0,0,0,0,0,0,0,0,0,0,73,
scooby_state_6a3c48|21|1 73,0,0,0,0,0,0,0,0,0,0,0,0,0,0,73,
scooby_state_6a3c5f|61|1 73,0,0,0,0,0,0,0,0,0,0,0,0,0,0,73,
scooby_state_6a3cb7|34|1 73,0,0,0,0,0,0,0,0,0,0,0,0,0,0,73,
scooby_state_6a3c48|11|1 73,0,0,0,0,0,0,0,0,0,0,0,0,0,0,73,
scooby_state_6a3c27|57|1 73,0,0,0,0,0,0,0,0,0,0,0,0,0,0,73,
scooby_state_6a3c48|7|1 73,0,0,0,0,0,0,0,0,0,0,0,0,0,0,73,
scooby_state_6a3c3b|57|1 73,0,0,0,0,0,0,0,0,0,0,0,0,0,0,73,
scooby_state_6a3c27|63|1 73,0,0,0,0,0,0,0,0,0,0,0,0,0,0,73,
scooby_state_6a3c4e|41|1 73,0,0,0,0,0,0,0,0,0,0,0,0,0,0,73,
scooby_state_6a3c64|35|1 73,0,0,0,0,0,0,0,0,0,0,0,0,0,0,73,
scooby_state_6a3bf7|58|1 73,0,0,0,0,0,0,0,0,0,0,0,0,0,0,73,
scooby_state_6a3c5f|3|1 73,0,0,0,0,0,0,0,0,0,0,0,0,0,0,73,
scooby_state_6a3bf7|3|1 72,0,0,0,0,0,0,0,0,0,0,1,0,0,0,73,
scooby_state_6a3c3b|5|1 73,0,0,0,0,0,0,0,0,0,0,0,0,0,0,73,
scooby_state_6a3bf7|7|1 71,0,1,0,0,0,1,0,0,0,0,0,0,0,0,73,
scooby_state_6a3c5f|14|1 73,0,0,0,0,0,0,0,0,0,0,0,0,0,0,73,
scooby_state_6a3cb7|31|1 73,0,0,0,0,0,0,0,0,0,0,0,0,0,0,73,
scooby_state_6a3c27|19|1 73,0,0,0,0,0,0,0,0,0,0,0,0,0,0,73,
scooby_state_6a3c64|12|1 73,0,0,0,0,0,0,0,0,0,0,0,0,0,0,73,
scooby_state_6a3c1b|26|1 73,0,0,0,0,0,0,0,0,0,0,0,0,0,0,73,
scooby_state_6a3c3b|61|1 73,0,0,0,0,0,0,0,0,0,0,0,0,0,0,73,
scooby_state_6a3c4e|39|1 73,0,0,0,0,0,0,0,0,0,0,0,0,0,0,73,
scooby_state_6a3c48|39|1 72,0,1,0,0,0,0,0,0,0,0,0,0,0,0,73,
scooby_state_6a3c5f|25|1 73,0,0,0,0,0,0,0,0,0,0,0,0,0,0,73,
scooby_state_6a3c33|43|1 73,0,0,0,0,0,0,0,0,0,0,0,0,0,0,73,
scooby_state_6a3c48|59|1 73,0,0,0,0,0,0,0,0,0,0,0,0,0,0,73,
scooby_state_6a3ce0|2|1 73,0,0,0,0,0,0,0,0,0,0,0,0,0,0,73,
scooby_state_6a3c5f|63|1 73,0,0,0,0,0,0,0,0,0,0,0,0,0,0,73,
scooby_state_6a3c33|58|1 73,0,0,0,0,0,0,0,0,0,0,0,0,0,0,73,
scooby_state_6a3c33|49|1 73,0,0,0,0,0,0,0,0,0,0,0,0,0,0,73,
scooby_state_6a3c5f|58|1 73,0,0,0,0,0,0,0,0,0,0,0,0,0,0,73,
scooby_state_6a3c27|61|1 72,0,0,0,0,0,0,0,0,0,0,0,1,0,0,73,
scooby_state_6a3c3b|16|1 73,0,0,0,0,0,0,0,0,0,0,0,0,0,0,73,
scooby_state_6a3cbf|21|1 73,0,0,0,0,0,0,0,0,0,0,0,0,0,0,73,
scooby_state_6a3c64|41|1 73,0,0,0,0,0,0,0,0,0,0,0,0,0,0,73,
scooby_state_6a3c4e|57|1 73,0,0,0,0,0,0,0,0,0,0,0,0,0,0,73,
scooby_state_6a3c27|26|1 73,0,0,0,0,0,0,0,0,0,0,0,0,0,0,73,
scooby_state_6a3cbf|46|1 73,0,0,0,0,0,0,0,0,0,0,0,0,0,0,73,
scooby_state_6a3c64|42|1 73,0,0,0,0,0,0,0,0,0,0,0,0,0,0,73,
scooby_state_6a3c4e|18|1 73,0,0,0,0,0,0,0,0,0,0,0,0,0,0,73,
scooby_state_6a3cbf|35|1 73,0,0,0,0,0,0,0,0,0,0,0,0,0,0,73,
scooby_state_6a3ce0|62|1 73,0,0,0,0,0,0,0,0,0,0,0,0,0,0,73,
scooby_state_6a3c3b|12|1 72,0,0,0,1,0,0,0,0,0,0,0,0,0,0,73,
scooby_state_6a3cbf|25|1 73,0,0,0,0,0,0,0,0,0,0,0,0,0,0,73,
scooby_state_6a3c33|37|1 73,0,0,0,0,0,0,0,0,0,0,0,0,0,0,73,
scooby_state_6a3c4e|33|1 73,0,0,0,0,0,0,0,0,0,0,0,0,0,0,73,
scooby_state_6a3bf7|8|1 73,0,0,0,0,0,0,0,0,0,0,0,0,0,0,73,
scooby_state_6a3c3b|54|1 73,0,0,0,0,0,0,0,0,0,0,0,0,0,0,73,
scooby_state_6a3c33|41|1 72,1,0,0,0,0,0,0,0,0,0,0,0,0,0,73,
scooby_state_6a3cbf|34|1 72,0,0,0,0,0,0,0,0,1,0,0,0,0,0,73,
scooby_state_6a3c64|7|1 73,0,0,0,0,0,0,0,0,0,0,0,0,0,0,73,
scooby_state_6a3cd0|16|1 73,0,0,0,0,0,0,0,0,0,0,0,0,0,0,73,
scooby_state_6a3c4e|25|1 73,0,0,0,0,0,0,0,0,0,0,0,0,0,0,73,
scooby_state_6a3ce0|13|1 73,0,0,0,0,0,0,0,0,0,0,0,0,0,0,73,
scooby_state_6a3ce0|60|1 73,0,0,0,0,0,0,0,0,0,0,0,0,0,0,73,
scooby_state_6a3c3b|19|1 72,0,0,0,0,0,1,0,0,0,0,0,0,0,0,73,
scooby_state_6a3cb7|2|1 73,0,0,0,0,0,0,0,0,0,0,0,0,0,0,73,
scooby_state_6a3cb7|13|1 73,0,0,0,0,0,0,0,0,0,0,0,0,0,0,73,
scooby_state_6a3c33|2|1 73,0,0,0,0,0,0,0,0,0,0,0,0,0,0,73,
scooby_state_6a3cbf|18|1 73,0,0,0,0,0,0,0,0,0,0,0,0,0,0,73,
scooby_state_6a3c48|40|1 73,0,0,0,0,0,0,0,0,0,0,0,0,0,0,73,
scooby_state_6a3c33|1|1 73,0,0,0,0,0,0,0,0,0,0,0,0,0,0,73,
scooby_state_6a3cbf|15|1 73,0,0,0,0,0,0,0,0,0,0,0,0,0,0,73,
scooby_state_6a3cd0|22|1 73,0,0,0,0,0,0,0,0,0,0,0,0,0,0,73,
scooby_state_6a3c27|53|1 73,0,0,0,0,0,0,0,0,0,0,0,0,0,0,73,
scooby_state_6a3c1b|43|1 72,1,0,0,0,0,0,0,0,0,0,0,0,0,0,73,
scooby_state_6a3ce0|8|1 73,0,0,0,0,0,0,0,0,0,0,0,0,0,0,73,
scooby_state_6a3c33|35|1 73,0,0,0,0,0,0,0,0,0,0,0,0,0,0,73,
scooby_state_6a3beb|5|1 73,0,0,0,0,0,0,0,0,0,0,0,0,0,0,73,
scooby_state_6a3cd0|14|1 73,0,0,0,0,0,0,0,0,0,0,0,0,0,0,73,
scooby_state_6a3c64|9|1 73,0,0,0,0,0,0,0,0,0,0,0,0,0,0,73,
scooby_state_6a3c4e|37|1 73,0,0,0,0,0,0,0,0,0,0,0,0,0,0,73,
scooby_state_6a3c4e|32|1 73,0,0,0,0,0,0,0,0,0,0,0,0,0,0,73,
scooby_state_6a3c4e|29|1 72,0,0,0,0,0,0,0,0,0,0,1,0,0,0,73,
scooby_state_6a3c33|3|1 73,0,0,0,0,0,0,0,0,0,0,0,0,0,0,73,
scooby_state_6a3c1b|17|1 73,0,0,0,0,0,0,0,0,0,0,0,0,0,0,73,
scooby_state_6a3cb7|24|1 73,0,0,0,0,0,0,0,0,0,0,0,0,0,0,73,
scooby_state_6a3c1b|12|1 73,0,0,0,0,0,0,0,0,0,0,0,0,0,0,73,
scooby_state_6a3c1b|15|1 72,0,0,0,1,0,0,0,0,0,0,0,0,0,0,73,
scooby_state_6a3cd0|9|1 73,0,0,0,0,0,0,0,0,0,0,0,0,0,0,73,
scooby_state_6a3cbf|30|1 73,0,0,0,0,0,0,0,0,0,0,0,0,0,0,73,
scooby_state_6a3c48|25|1 73,0,0,0,0,0,0,0,0,0,0,0,0,0,0,73,
scooby_state_6a3ce0|45|1 73,0,0,0,0,0,0,0,0,0,0,0,0,0,0,73,
scooby_state_6a3c64|43|1 73,0,0,0,0,0,0,0,0,0,0,0,0,0,0,73,
scooby_state_6a3c1b|33|1 73,0,0,0,0,0,0,0,0,0,0,0,0,0,0,73,
scooby_state_6a3c1b|29|1 73,0,0,0,0,0,0,0,0,0,0,0,0,0,0,73,
scooby_state_6a3c4e|28|1 73,0,0,0,0,0,0,0,0,0,0,0,0,0,0,73,
scooby_state_6a3c64|8|1 72,0,0,0,1,0,0,0,0,0,0,0,0,0,0,73,
scooby_state_6a3ce0|51|1 73,0,0,0,0,0,0,0,0,0,0,0,0,0,0,73,
scooby_state_6a3c5f|57|1 73,0,0,0,0,0,0,0,0,0,0,0,0,0,0,73,
scooby_state_6a3c5f|22|1 73,0,0,0,0,0,0,0,0,0,0,0,0,0,0,73,
scooby_state_6a3ce0|54|1 73,0,0,0,0,0,0,0,0,0,0,0,0,0,0,73,
scooby_state_6a3c4e|38|1 72,0,0,0,0,0,0,0,0,0,0,0,1,0,0,73,
scooby_state_6a3cd0|31|1 73,0,0,0,0,0,0,0,0,0,0,0,0,0,0,73,
scooby_state_6a3c27|27|1 72,0,0,0,0,0,1,0,0,0,0,0,0,0,0,73,
scooby_state_6a3c3b|4|1 73,0,0,0,0,0,0,0,0,0,0,0,0,0,0,73,
scooby_state_6a3c27|29|1 73,0,0,0,0,0,0,0,0,0,0,0,0,0,0,73,
scooby_state_6a3cbf|38|1 73,0,0,0,0,0,0,0,0,0,0,0,0,0,0,73,
scooby_state_6a3c1b|46|1 73,0,0,0,0,0,0,0,0,0,0,0,0,0,0,73,
scooby_state_6a3c4e|42|1 73,0,0,0,0,0,0,0,0,0,0,0,0,0,0,73,
scooby_state_6a3beb|6|1 73,0,0,0,0,0,0,0,0,0,0,0,0,0,0,73,
scooby_state_6a3cbf|31|1 73,0,0,0,0,0,0,0,0,0,0,0,0,0,0,73,
scooby_state_6a3cb7|32|1 72,0,0,0,0,0,0,0,0,0,0,1,0,0,0,73,
scooby_state_6a3c33|55|1 73,0,0,0,0,0,0,0,0,0,0,0,0,0,0,73,
scooby_state_6a3c64|10|1 73,0,0,0,0,0,0,0,0,0,0,0,0,0,0,73,
scooby_state_6a3c27|46|1 73,0,0,0,0,0,0,0,0,0,0,0,0,0,0,73,
scooby_state_6a3c27|62|1 72,0,1,0,0,0,0,0,0,0,0,0,0,0,0,73,
scooby_state_6a3c64|5|1 73,0,0,0,0,0,0,0,0,0,0,0,0,0,0,73,
scooby_state_6a3cd0|40|1 73,0,0,0,0,0,0,0,0,0,0,0,0,0,0,73,
scooby_state_6a3c3b|44|1 73,0,0,0,0,0,0,0,0,0,0,0,0,0,0,73,
scooby_state_6a3ce0|6|1 73,0,0,0,0,0,0,0,0,0,0,0,0,0,0,73,
scooby_state_6a3cbf|27|1 73,0,0,0,0,0,0,0,0,0,0,0,0,0,0,73,
scooby_state_6a3c3b|60|1 73,0,0,0,0,0,0,0,0,0,0,0,0,0,0,73,
scooby_state_6a3ce0|15|1 72,0,0,0,1,0,0,0,0,0,0,0,0,0,0,73,
scooby_state_6a3cb7|20|1 73,0,0,0,0,0,0,0,0,0,0,0,0,0,0,73,
scooby_state_6a3ce0|49|1 73,0,0,0,0,0,0,0,0,0,0,0,0,0,0,73,
scooby_state_6a3cbf|23|1 73,0,0,0,0,0,0,0,0,0,0,0,0,0,0,73,
scooby_state_6a3c5f|9|1 73,0,0,0,0,0,0,0,0,0,0,0,0,0,0,73,
scooby_state_6a3ce0|18|1 73,0,0,0,0,0,0,0,0,0,0,0,0,0,0,73,
scooby_state_6a3ce0|63|1 72,0,0,0,0,1,0,0,0,0,0,0,0,0,0,73,
scooby_state_6a3c27|44|1 73,0,0,0,0,0,0,0,0,0,0,0,0,0,0,73,
scooby_state_6a3c1b|11|1 73,0,0,0,0,0,0,0,0,0,0,0,0,0,0,73,
scooby_state_6a3c3b|49|1 73,0,0,0,0,0,0,0,0,0,0,0,0,0,0,73,
scooby_state_6a3cbf|17|1 73,0,0,0,0,0,0,0,0,0,0,0,0,0,0,73,
scooby_state_6a3cd0|15|1 73,0,0,0,0,0,0,0,0,0,0,0,0,0,0,73,
scooby_state_6a3cbf|47|1 73,0,0,0,0,0,0,0,0,0,0,0,0,0,0,73,
scooby_state_6a3c1b|21|1 72,0,0,1,0,0,0,0,0,0,0,0,0,0,0,73,
scooby_state_6a3c3b|63|1 72,0,1,0,0,0,0,0,0,0,0,0,0,0,0,73,
scooby_state_6a3cb7|21|1 72,1,0,0,0,0,0,0,0,0,0,0,0,0,0,73,
scooby_state_6a3ce0|10|1 73,0,0,0,0,0,0,0,0,0,0,0,0,0,0,73,
scooby_state_6a3cbf|29|1 73,0,0,0,0,0,0,0,0,0,0,0,0,0,0,73,
scooby_state_6a3cd0|20|1 73,0,0,0,0,0,0,0,0,0,0,0,0,0,0,73,
scooby_state_6a3ce0|59|1 72,0,0,0,0,0,0,0,0,1,0,0,0,0,0,73,
scooby_state_6a3cb7|27|1 73,0,0,0,0,0,0,0,0,0,0,0,0,0,0,73,
scooby_state_6a3c4e|35|1 73,0,0,0,0,0,0,0,0,0,0,0,0,0,0,73,
scooby_state_6a3c33|48|1 73,0,0,0,0,0,0,0,0,0,0,0,0,0,0,73,
scooby_state_6a3cb7|14|1 73,0,0,0,0,0,0,0,0,0,0,0,0,0,0,73,
scooby_state_6a3c48|22|1 71,1,0,0,0,0,0,0,1,0,0,0,0,0,0,73,
scooby_state_6a3cb7|9|1 73,0,0,0,0,0,0,0,0,0,0,0,0,0,0,73,
scooby_state_6a3ce0|58|1 73,0,0,0,0,0,0,0,0,0,0,0,0,0,0,73,
scooby_state_6a3c48|10|1 73,0,0,0,0,0,0,0,0,0,0,0,0,0,0,73,
scooby_state_6a3c4e|55|1 73,0,0,0,0,0,0,0,0,0,0,0,0,0,0,73,
scooby_state_6a3cb7|37|1 72,0,0,0,0,0,0,0,0,0,0,1,0,0,0,73,
scooby_state_6a3c64|19|1 73,0,0,0,0,0,0,0,0,0,0,0,0,0,0,73,
scooby_state_6a3cb7|1|1 72,0,0,0,0,0,0,0,0,0,0,0,1,0,0,73,
scooby_state_6a3c48|23|1 73,0,0,0,0,0,0,0,0,0,0,0,0,0,0,73,
scooby_state_6a3c27|41|1 73,0,0,0,0,0,0,0,0,0,0,0,0,0,0,73,
scooby_state_6a3beb|0|0 72,0,0,0,0,1,0,0,0,0,0,0,0,0,0,73,
scooby_state_6a3c64|33|1 72,0,0,0,0,0,0,0,0,0,0,0,0,0,0,72,
scooby_state_6a3beb|45|1 72,0,0,0,0,0,0,0,0,0,0,0,0,0,0,72,
scooby_state_6a3c1b|19|1 72,0,0,0,0,0,0,0,0,0,0,0,0,0,0,72,
scooby_state_6a3cbf|28|1 72,0,0,0,0,0,0,0,0,0,0,0,0,0,0,72,
scooby_state_6a3beb|42|1 72,0,0,0,0,0,0,0,0,0,0,0,0,0,0,72,
scooby_state_6a3c1b|36|1 72,0,0,0,0,0,0,0,0,0,0,0,0,0,0,72,
scooby_state_6a3beb|31|1 72,0,0,0,0,0,0,0,0,0,0,0,0,0,0,72,
scooby_state_6a3c3b|9|1 72,0,0,0,0,0,0,0,0,0,0,0,0,0,0,72,
scooby_state_6a3c3b|50|1 72,0,0,0,0,0,0,0,0,0,0,0,0,0,0,72,
scooby_state_6a3c1b|42|1 72,0,0,0,0,0,0,0,0,0,0,0,0,0,0,72,
scooby_state_6a3ce0|55|1 72,0,0,0,0,0,0,0,0,0,0,0,0,0,0,72,
scooby_state_6a3c4e|53|1 72,0,0,0,0,0,0,0,0,0,0,0,0,0,0,72,
scooby_state_6a3c33|56|1 72,0,0,0,0,0,0,0,0,0,0,0,0,0,0,72,
scooby_state_6a3c4e|59|1 72,0,0,0,0,0,0,0,0,0,0,0,0,0,0,72,
scooby_state_6a3beb|3|1 72,0,0,0,0,0,0,0,0,0,0,0,0,0,0,72,
scooby_state_6a3c27|36|1 72,0,0,0,0,0,0,0,0,0,0,0,0,0,0,72,
scooby_state_6a3beb|40|1 72,0,0,0,0,0,0,0,0,0,0,0,0,0,0,72,
scooby_state_6a3c64|27|1 72,0,0,0,0,0,0,0,0,0,0,0,0,0,0,72,
scooby_state_6a3bf7|54|1 71,0,0,0,0,0,0,0,0,0,1,0,0,0,0,72,
scooby_state_6a3beb|44|1 72,0,0,0,0,0,0,0,0,0,0,0,0,0,0,72,
scooby_state_6a3beb|46|1 72,0,0,0,0,0,0,0,0,0,0,0,0,0,0,72,
scooby_state_6a3cbf|16|1 72,0,0,0,0,0,0,0,0,0,0,0,0,0,0,72,
scooby_state_6a3cd0|7|1 72,0,0,0,0,0,0,0,0,0,0,0,0,0,0,72,
scooby_state_6a3c4e|47|1 72,0,0,0,0,0,0,0,0,0,0,0,0,0,0,72,
scooby_state_6a3cd0|19|1 72,0,0,0,0,0,0,0,0,0,0,0,0,0,0,72,
scooby_state_6a3c64|15|1 72,0,0,0,0,0,0,0,0,0,0,0,0,0,0,72,
scooby_state_6a3c64|21|1 72,0,0,0,0,0,0,0,0,0,0,0,0,0,0,72,
scooby_state_6a3ce0|3|1 72,0,0,0,0,0,0,0,0,0,0,0,0,0,0,72,
scooby_state_6a3cbf|39|1 71,0,1,0,0,0,0,0,0,0,0,0,0,0,0,72,
scooby_state_6a3c3b|62|1 72,0,0,0,0,0,0,0,0,0,0,0,0,0,0,72,
scooby_state_6a3cb7|16|1 72,0,0,0,0,0,0,0,0,0,0,0,0,0,0,72,
scooby_state_6a3beb|39|1 72,0,0,0,0,0,0,0,0,0,0,0,0,0,0,72,
scooby_state_6a3c5f|21|1 72,0,0,0,0,0,0,0,0,0,0,0,0,0,0,72,
scooby_state_6a3bf7|60|1 72,0,0,0,0,0,0,0,0,0,0,0,0,0,0,72,
scooby_state_6a3c48|18|1 72,0,0,0,0,0,0,0,0,0,0,0,0,0,0,72,
scooby_state_6a3c5f|4|1 72,0,0,0,0,0,0,0,0,0,0,0,0,0,0,72,
scooby_state_6a3cd0|13|1 72,0,0,0,0,0,0,0,0,0,0,0,0,0,0,72,
scooby_state_6a3bf7|53|1 72,0,0,0,0,0,0,0,0,0,0,0,0,0,0,72,
scooby_state_6a3c5f|56|1 72,0,0,0,0,0,0,0,0,0,0,0,0,0,0,72,
scooby_state_6a3c33|44|1 72,0,0,0,0,0,0,0,0,0,0,0,0,0,0,72,
scooby_state_6a3ce0|9|1 72,0,0,0,0,0,0,0,0,0,0,0,0,0,0,72,
scooby_state_6a3c4e|24|1 72,0,0,0,0,0,0,0,0,0,0,0,0,0,0,72,
scooby_state_6a3c1b|48|1 72,0,0,0,0,0,0,0,0,0,0,0,0,0,0,72,
scooby_state_6a3ce0|61|1 72,0,0,0,0,0,0,0,0,0,0,0,0,0,0,72,
scooby_state_6a3c1b|25|1 72,0,0,0,0,0,0,0,0,0,0,0,0,0,0,72,
scooby_state_6a3c3b|56|1 72,0,0,0,0,0,0,0,0,0,0,0,0,0,0,72,
scooby_state_6a3beb|41|1 72,0,0,0,0,0,0,0,0,0,0,0,0,0,0,72,
scooby_state_6a3beb|35|1 72,0,0,0,0,0,0,0,0,0,0,0,0,0,0,72,
scooby_state_6a3cd0|30|1 72,0,0,0,0,0,0,0,0,0,0,0,0,0,0,72,
scooby_state_6a3cb7|22|1 72,0,0,0,0,0,0,0,0,0,0,0,0,0,0,72,
scooby_state_6a3c5f|27|1 72,0,0,0,0,0,0,0,0,0,0,0,0,0,0,72,
scooby_state_6a3c27|42|1 72,0,0,0,0,0,0,0,0,0,0,0,0,0,0,72,
scooby_state_6a3c48|30|1 72,0,0,0,0,0,0,0,0,0,0,0,0,0,0,72,
scooby_state_6a3bf7|59|1 72,0,0,0,0,0,0,0,0,0,0,0,0,0,0,72,
scooby_state_6a3bf7|56|1 72,0,0,0,0,0,0,0,0,0,0,0,0,0,0,72,
scooby_state_6a3c5f|15|1 72,0,0,0,0,0,0,0,0,0,0,0,0,0,0,72,
scooby_state_6a3c27|48|1 72,0,0,0,0,0,0,0,0,0,0,0,0,0,0,72,
scooby_state_6a3cd0|36|1 72,0,0,0,0,0,0,0,0,0,0,0,0,0,0,72,
scooby_state_6a3c4e|36|1 72,0,0,0,0,0,0,0,0,0,0,0,0,0,0,72,
scooby_state_6a3beb|58|1 72,0,0,0,0,0,0,0,0,0,0,0,0,0,0,72,
scooby_state_6a3c27|54|1 72,0,0,0,0,0,0,0,0,0,0,0,0,0,0,72,
scooby_state_6a3cbf|22|1 72,0,0,0,0,0,0,0,0,0,0,0,0,0,0,72,
scooby_state_6a3c4e|30|1 72,0,0,0,0,0,0,0,0,0,0,0,0,0,0,72,
scooby_state_6a3cbf|51|1 72,0,0,0,0,0,0,0,0,0,0,0,0,0,0,72,
scooby_state_6a3bf7|55|1 72,0,0,0,0,0,0,0,0,0,0,0,0,0,0,72,
scooby_state_6a3bf7|57|1 72,0,0,0,0,0,0,0,0,0,0,0,0,0,0,72,
scooby_state_6a3beb|38|1 72,0,0,0,0,0,0,0,0,0,0,0,0,0,0,72,
scooby_state_6a3c33|50|1 70,0,0,1,0,0,0,0,1,0,0,0,0,0,0,72,
scooby_state_6a3beb|52|1 72,0,0,0,0,0,0,0,0,0,0,0,0,0,0,72,
scooby_state_6a3c5f|62|1 72,0,0,0,0,0,0,0,0,0,0,0,0,0,0,72,
scooby_state_6a3cd0|42|1 72,0,0,0,0,0,0,0,0,0,0,0,0,0,0,72,
scooby_state_6a3cb7|28|1 71,0,0,0,1,0,0,0,0,0,0,0,0,0,0,72,
scooby_state_6a3c3b|21|1 71,0,0,0,0,1,0,0,0,0,0,0,0,0,0,72,
scooby_state_6a3cb7|10|1 72,0,0,0,0,0,0,0,0,0,0,0,0,0,0,72,
scooby_state_6a3c48|36|1 72,0,0,0,0,0,0,0,0,0,0,0,0,0,0,72,
scooby_state_6a3c1b|13|1 71,0,0,0,1,0,0,0,0,0,0,0,0,0,0,72,
scooby_state_6a3c33|62|1 72,0,0,0,0,0,0,0,0,0,0,0,0,0,0,72,
scooby_state_6a3c3b|15|1 72,0,0,0,0,0,0,0,0,0,0,0,0,0,0,72,
scooby_state_6a3cbf|45|1 72,0,0,0,0,0,0,0,0,0,0,0,0,0,0,72,
scooby_state_6a3bf7|46|1 72,0,0,0,0,0,0,0,0,0,0,0,0,0,0,72,
scooby_state_6a3c48|24|1 72,0,0,0,0,0,0,0,0,0,0,0,0,0,0,72,
scooby_state_6a3beb|54|1 71,0,0,0,0,0,0,0,0,0,0,0,0,0,0,71,
scooby_state_6a3beb|56|1 71,0,0,0,0,0,0,0,0,0,0,0,0,0,0,71,
scooby_state_6a3beb|49|1 71,0,0,0,0,0,0,0,0,0,0,0,0,0,0,71,
scooby_state_6a3bf7|62|1 71,0,0,0,0,0,0,0,0,0,0,0,0,0,0,71,
scooby_state_6a3bf7|9|1 71,0,0,0,0,0,0,0,0,0,0,0,0,0,0,71,
scooby_state_6a3beb|51|1 71,0,0,0,0,0,0,0,0,0,0,0,0,0,0,71,
scooby_state_6a3beb|23|1 71,0,0,0,0,0,0,0,0,0,0,0,0,0,0,71,
scooby_state_6a3beb|17|1 71,0,0,0,0,0,0,0,0,0,0,0,0,0,0,71,
scooby_state_6a3beb|57|1 70,0,0,0,0,0,1,0,0,0,0,0,0,0,0,71,
scooby_state_6a3beb|47|1 71,0,0,0,0,0,0,0,0,0,0,0,0,0,0,71,
scooby_state_6a3bf7|31|1 70,0,0,0,0,0,0,0,0,0,1,0,0,0,0,71,
scooby_state_6a3beb|33|1 70,0,1,0,0,0,0,0,0,0,0,0,0,0,0,71,
scooby_state_6a3beb|32|1 70,0,1,0,0,0,0,0,0,0,0,0,0,0,0,71,
scooby_state_6a3beb|53|1 71,0,0,0,0,0,0,0,0,0,0,0,0,0,0,71,
scooby_state_6a3beb|55|1 70,0,0,0,0,0,0,1,0,0,0,0,0,0,0,71,
scooby_state_6a3bf7|63|1 71,0,0,0,0,0,0,0,0,0,0,0,0,0,0,71,
scooby_state_6a3bf7|37|1 71,0,0,0,0,0,0,0,0,0,0,0,0,0,0,71,
scooby_state_6a3bf7|48|1 71,0,0,0,0,0,0,0,0,0,0,0,0,0,0,71,
scooby_state_6a3beb|34|1 71,0,0,0,0,0,0,0,0,0,0,0,0,0,0,71,
scooby_state_6a3bf7|49|1 71,0,0,0,0,0,0,0,0,0,0,0,0,0,0,71,
scooby_state_6a3bf7|61|1 70,0,0,0,0,0,0,0,0,0,1,0,0,0,0,71,
scooby_state_6a3beb|50|1 71,0,0,0,0,0,0,0,0,0,0,0,0,0,0,71,
scooby_state_6a3bf7|51|1 71,0,0,0,0,0,0,0,0,0,0,0,0,0,0,71,
scooby_state_6a3bf7|23|1 71,0,0,0,0,0,0,0,0,0,0,0,0,0,0,71,
scooby_state_6a3beb|36|1 71,0,0,0,0,0,0,0,0,0,0,0,0,0,0,71,
scooby_state_6a3beb|29|1 71,0,0,0,0,0,0,0,0,0,0,0,0,0,0,71,
scooby_state_6a3bf7|47|1 71,0,0,0,0,0,0,0,0,0,0,0,0,0,0,71,
scooby_state_6a3bf7|45|1 71,0,0,0,0,0,0,0,0,0,0,0,0,0,0,71,
scooby_state_6a3beb|60|1 71,0,0,0,0,0,0,0,0,0,0,0,0,0,0,71,
scooby_state_6a3bf7|44|1 71,0,0,0,0,0,0,0,0,0,0,0,0,0,0,71,
scooby_state_6a3beb|30|1 71,0,0,0,0,0,0,0,0,0,0,0,0,0,0,71,
scooby_state_6a3bf7|10|1 71,0,0,0,0,0,0,0,0,0,0,0,0,0,0,71,
scooby_state_6a3bf7|50|1 71,0,0,0,0,0,0,0,0,0,0,0,0,0,0,71,
scooby_state_6a3bf7|11|1 71,0,0,0,0,0,0,0,0,0,0,0,0,0,0,71,
scooby_state_6a3bf7|17|1 71,0,0,0,0,0,0,0,0,0,0,0,0,0,0,71,
scooby_state_6a3bf7|43|1 71,0,0,0,0,0,0,0,0,0,0,0,0,0,0,71,
scooby_state_6a3beb|48|1 71,0,0,0,0,0,0,0,0,0,0,0,0,0,0,71,
scooby_state_6a3beb|59|1 71,0,0,0,0,0,0,0,0,0,0,0,0,0,0,71,
scooby_state_6a3bf7|18|1 68,0,0,0,1,0,1,0,0,0,0,0,0,0,0,70,
scooby_state_6a3bf7|27|1 70,0,0,0,0,0,0,0,0,0,0,0,0,0,0,70,
scooby_state_6a3bf7|33|1 70,0,0,0,0,0,0,0,0,0,0,0,0,0,0,70,
scooby_state_6a3beb|21|1 70,0,0,0,0,0,0,0,0,0,0,0,0,0,0,70,
scooby_state_6a3bf7|36|1 70,0,0,0,0,0,0,0,0,0,0,0,0,0,0,70,
scooby_state_6a3beb|12|1 70,0,0,0,0,0,0,0,0,0,0,0,0,0,0,70,
scooby_state_6a3beb|19|1 70,0,0,0,0,0,0,0,0,0,0,0,0,0,0,70,
scooby_state_6a3bf7|28|1 70,0,0,0,0,0,0,0,0,0,0,0,0,0,0,70,
scooby_state_6a3bf7|39|1 70,0,0,0,0,0,0,0,0,0,0,0,0,0,0,70,
scooby_state_6a3beb|24|1 70,0,0,0,0,0,0,0,0,0,0,0,0,0,0,70,
scooby_state_6a3bf7|30|1 70,0,0,0,0,0,0,0,0,0,0,0,0,0,0,70,
scooby_state_6a3c3b|0|-63 70,0,0,0,0,0,0,0,0,0,0,0,0,0,0,70,
scooby_state_6a3bf7|35|1 70,0,0,0,0,0,0,0,0,0,0,0,0,0,0,70,
scooby_state_6a3bf7|34|1 69,0,0,0,0,0,0,0,0,0,0,1,0,0,0,70,
scooby_state_6a3beb|15|1 70,0,0,0,0,0,0,0,0,0,0,0,0,0,0,70,
scooby_state_6a3bf7|21|1 70,0,0,0,0,0,0,0,0,0,0,0,0,0,0,70,
scooby_state_6a3beb|11|1 70,0,0,0,0,0,0,0,0,0,0,0,0,0,0,70,
scooby_state_6a3bf7|19|1 70,0,0,0,0,0,0,0,0,0,0,0,0,0,0,70,
scooby_state_6a3beb|20|1 70,0,0,0,0,0,0,0,0,0,0,0,0,0,0,70,
scooby_state_6a3bf7|25|1 70,0,0,0,0,0,0,0,0,0,0,0,0,0,0,70,
scooby_state_6a3bf7|29|1 70,0,0,0,0,0,0,0,0,0,0,0,0,0,0,70,
scooby_state_6a3beb|13|1 70,0,0,0,0,0,0,0,0,0,0,0,0,0,0,70,
scooby_state_6a3bf7|14|1 70,0,0,0,0,0,0,0,0,0,0,0,0,0,0,70,
scooby_state_6a3beb|10|1 70,0,0,0,0,0,0,0,0,0,0,0,0,0,0,70,
scooby_state_6a3bf7|24|1 70,0,0,0,0,0,0,0,0,0,0,0,0,0,0,70,
scooby_state_6a3beb|28|1 69,0,0,0,1,0,0,0,0,0,0,0,0,0,0,70,
scooby_state_6a3bf7|26|1 70,0,0,0,0,0,0,0,0,0,0,0,0,0,0,70,
scooby_state_6a3bf7|41|1 70,0,0,0,0,0,0,0,0,0,0,0,0,0,0,70,
scooby_state_6a3beb|25|1 69,0,0,0,0,0,0,0,0,0,0,1,0,0,0,70,
scooby_state_6a3beb|27|1 70,0,0,0,0,0,0,0,0,0,0,0,0,0,0,70,
scooby_state_6a3bf7|42|1 70,0,0,0,0,0,0,0,0,0,0,0,0,0,0,70,
scooby_state_6a3bf7|15|1 70,0,0,0,0,0,0,0,0,0,0,0,0,0,0,70,
scooby_state_6a3bf7|20|1 70,0,0,0,0,0,0,0,0,0,0,0,0,0,0,70,
scooby_state_6a3bf7|32|1 69,0,0,0,0,0,0,1,0,0,0,0,0,0,0,70,
scooby_state_6a3bf7|38|1 70,0,0,0,0,0,0,0,0,0,0,0,0,0,0,70,
scooby_state_6a3beb|61|1 70,0,0,0,0,0,0,0,0,0,0,0,0,0,0,70,
scooby_state_6a3beb|63|1 70,0,0,0,0,0,0,0,0,0,0,0,0,0,0,70,
scooby_state_6a3beb|18|1 70,0,0,0,0,0,0,0,0,0,0,0,0,0,0,70,
scooby_state_6a3beb|62|1 70,0,0,0,0,0,0,0,0,0,0,0,0,0,0,70,
scooby_state_6a3bf7|16|1 70,0,0,0,0,0,0,0,0,0,0,0,0,0,0,70,
scooby_state_6a3beb|9|1 70,0,0,0,0,0,0,0,0,0,0,0,0,0,0,70,
scooby_state_6a3beb|22|1 70,0,0,0,0,0,0,0,0,0,0,0,0,0,0,70,
scooby_state_6a3bf7|12|1 70,0,0,0,0,0,0,0,0,0,0,0,0,0,0,70,
scooby_state_6a3bf7|13|1 70,0,0,0,0,0,0,0,0,0,0,0,0,0,0,70,
scooby_state_6a3beb|14|1 70,0,0,0,0,0,0,0,0,0,0,0,0,0,0,70,
scooby_state_6a3bf7|40|1 70,0,0,0,0,0,0,0,0,0,0,0,0,0,0,70,
scooby_state_6a3beb|26|1 70,0,0,0,0,0,0,0,0,0,0,0,0,0,0,70,
scooby_state_6a3bf7|22|1 70,0,0,0,0,0,0,0,0,0,0,0,0,0,0,70,
scooby_state_6a3beb|16|1 70,0,0,0,0,0,0,0,0,0,0,0,0,0,0,70,
scooby_state_6a321e|41|1 66,0,0,0,0,0,0,0,0,0,0,0,0,0,0,66,
scooby_state_6a3210|41|1 66,0,0,0,0,0,0,0,0,0,0,0,0,0,0,66,
scooby_state_6a3210|47|1 66,0,0,0,0,0,0,0,0,0,0,0,0,0,0,66,
scooby_state_6a321e|18|1 66,0,0,0,0,0,0,0,0,0,0,0,0,0,0,66,
scooby_state_6a321e|12|1 66,0,0,0,0,0,0,0,0,0,0,0,0,0,0,66,
scooby_state_6a3210|53|1 66,0,0,0,0,0,0,0,0,0,0,0,0,0,0,66,
scooby_state_6a321e|35|1 66,0,0,0,0,0,0,0,0,0,0,0,0,0,0,66,
scooby_state_6a321e|29|1 66,0,0,0,0,0,0,0,0,0,0,0,0,0,0,66,
scooby_state_6a3210|29|1 66,0,0,0,0,0,0,0,0,0,0,0,0,0,0,66,
scooby_state_6a321e|24|1 65,1,0,0,0,0,0,0,0,0,0,0,0,0,0,66,
scooby_state_6a3210|35|1 65,1,0,0,0,0,0,0,0,0,0,0,0,0,0,66,
scooby_state_6a321e|10|1 65,0,0,0,0,0,0,0,0,0,0,0,0,0,0,65,
scooby_state_6a321e|26|1 65,0,0,0,0,0,0,0,0,0,0,0,0,0,0,65,
scooby_state_6a3210|46|1 64,0,0,0,0,0,0,0,0,0,0,0,0,0,1,65,
scooby_state_6a3210|42|1 65,0,0,0,0,0,0,0,0,0,0,0,0,0,0,65,
scooby_state_6a3210|40|1 65,0,0,0,0,0,0,0,0,0,0,0,0,0,0,65,
scooby_state_6a321e|22|1 65,0,0,0,0,0,0,0,0,0,0,0,0,0,0,65,
scooby_state_6a321e|34|1 65,0,0,0,0,0,0,0,0,0,0,0,0,0,0,65,
scooby_state_6a3210|39|1 65,0,0,0,0,0,0,0,0,0,0,0,0,0,0,65,
scooby_state_6a321e|6|1 65,0,0,0,0,0,0,0,0,0,0,0,0,0,0,65,
scooby_state_6a3210|43|1 65,0,0,0,0,0,0,0,0,0,0,0,0,0,0,65,
scooby_state_6a3210|57|1 65,0,0,0,0,0,0,0,0,0,0,0,0,0,0,65,
scooby_state_6a3210|38|1 65,0,0,0,0,0,0,0,0,0,0,0,0,0,0,65,
scooby_state_6a321e|37|1 65,0,0,0,0,0,0,0,0,0,0,0,0,0,0,65,
scooby_state_6a321e|40|1 65,0,0,0,0,0,0,0,0,0,0,0,0,0,0,65,
scooby_state_6a321e|0|0 64,0,0,0,0,0,0,0,0,0,1,0,0,0,0,65,
scooby_state_6a321e|17|1 64,0,0,0,0,1,0,0,0,0,0,0,0,0,0,65,
scooby_state_6a321e|16|1 65,0,0,0,0,0,0,0,0,0,0,0,0,0,0,65,
scooby_state_6a321e|27|1 65,0,0,0,0,0,0,0,0,0,0,0,0,0,0,65,
scooby_state_6a3210|49|1 65,0,0,0,0,0,0,0,0,0,0,0,0,0,0,65,
scooby_state_6a3210|44|1 65,0,0,0,0,0,0,0,0,0,0,0,0,0,0,65,
scooby_state_6a321e|25|1 65,0,0,0,0,0,0,0,0,0,0,0,0,0,0,65,
scooby_state_6a321e|13|1 65,0,0,0,0,0,0,0,0,0,0,0,0,0,0,65,
scooby_state_6a3210|58|1 65,0,0,0,0,0,0,0,0,0,0,0,0,0,0,65,
scooby_state_6a321e|19|1 65,0,0,0,0,0,0,0,0,0,0,0,0,0,0,65,
scooby_state_6a3210|27|1 65,0,0,0,0,0,0,0,0,0,0,0,0,0,0,65,
scooby_state_6a321e|23|1 64,0,0,0,0,0,0,1,0,0,0,0,0,0,0,65,
scooby_state_6a3210|45|1 65,0,0,0,0,0,0,0,0,0,0,0,0,0,0,65,
scooby_state_6a321e|53|1 65,0,0,0,0,0,0,0,0,0,0,0,0,0,0,65,
scooby_state_6a321e|31|1 65,0,0,0,0,0,0,0,0,0,0,0,0,0,0,65,
scooby_state_6a3210|54|1 65,0,0,0,0,0,0,0,0,0,0,0,0,0,0,65,
scooby_state_6a321e|43|1 65,0,0,0,0,0,0,0,0,0,0,0,0,0,0,65,
scooby_state_6a321e|28|1 65,0,0,0,0,0,0,0,0,0,0,0,0,0,0,65,
scooby_state_6a321e|47|1 65,0,0,0,0,0,0,0,0,0,0,0,0,0,0,65,
scooby_state_6a321e|14|1 65,0,0,0,0,0,0,0,0,0,0,0,0,0,0,65,
scooby_state_6a3210|34|1 65,0,0,0,0,0,0,0,0,0,0,0,0,0,0,65,
scooby_state_6a3210|30|1 65,0,0,0,0,0,0,0,0,0,0,0,0,0,0,65,
scooby_state_6a3210|26|1 64,0,0,0,0,0,0,1,0,0,0,0,0,0,0,65,
scooby_state_6a3210|25|1 65,0,0,0,0,0,0,0,0,0,0,0,0,0,0,65,
scooby_state_6a3210|37|1 65,0,0,0,0,0,0,0,0,0,0,0,0,0,0,65,
scooby_state_6a3210|18|1 65,0,0,0,0,0,0,0,0,0,0,0,0,0,0,65,
scooby_state_6a321e|32|1 65,0,0,0,0,0,0,0,0,0,0,0,0,0,0,65,
scooby_state_6a321e|39|1 65,0,0,0,0,0,0,0,0,0,0,0,0,0,0,65,
scooby_state_6a3210|48|1 65,0,0,0,0,0,0,0,0,0,0,0,0,0,0,65,
scooby_state_6a321e|38|1 65,0,0,0,0,0,0,0,0,0,0,0,0,0,0,65,
scooby_state_6a3210|56|1 65,0,0,0,0,0,0,0,0,0,0,0,0,0,0,65,
scooby_state_6a3210|32|1 65,0,0,0,0,0,0,0,0,0,0,0,0,0,0,65,
scooby_state_6a3210|55|1 65,0,0,0,0,0,0,0,0,0,0,0,0,0,0,65,
scooby_state_6a3210|6|1 65,0,0,0,0,0,0,0,0,0,0,0,0,0,0,65,
scooby_state_6a3210|52|1 65,0,0,0,0,0,0,0,0,0,0,0,0,0,0,65,
scooby_state_6a3210|12|1 65,0,0,0,0,0,0,0,0,0,0,0,0,0,0,65,
scooby_state_6a3210|28|1 65,0,0,0,0,0,0,0,0,0,0,0,0,0,0,65,
scooby_state_6a3210|33|1 65,0,0,0,0,0,0,0,0,0,0,0,0,0,0,65,
scooby_state_6a3210|24|1 65,0,0,0,0,0,0,0,0,0,0,0,0,0,0,65,
scooby_state_6a321e|11|1 65,0,0,0,0,0,0,0,0,0,0,0,0,0,0,65,
scooby_state_6a321e|30|1 65,0,0,0,0,0,0,0,0,0,0,0,0,0,0,65,
scooby_state_6a3210|51|1 65,0,0,0,0,0,0,0,0,0,0,0,0,0,0,65,
scooby_state_6a321e|42|1 65,0,0,0,0,0,0,0,0,0,0,0,0,0,0,65,
scooby_state_6a321e|36|1 65,0,0,0,0,0,0,0,0,0,0,0,0,0,0,65,
scooby_state_6a3210|36|1 65,0,0,0,0,0,0,0,0,0,0,0,0,0,0,65,
scooby_state_6a321e|33|1 65,0,0,0,0,0,0,0,0,0,0,0,0,0,0,65,
scooby_state_6a3210|50|1 65,0,0,0,0,0,0,0,0,0,0,0,0,0,0,65,
scooby_state_6a321e|15|1 65,0,0,0,0,0,0,0,0,0,0,0,0,0,0,65,
scooby_state_6a321e|20|1 65,0,0,0,0,0,0,0,0,0,0,0,0,0,0,65,
scooby_state_6a321e|21|1 64,0,0,0,0,0,0,0,1,0,0,0,0,0,0,65,
scooby_state_6a3210|31|1 65,0,0,0,0,0,0,0,0,0,0,0,0,0,0,65,
scooby_state_6a3210|10|1 64,0,0,0,0,0,0,0,0,0,0,0,0,0,0,64,
scooby_state_6a321e|60|1 64,0,0,0,0,0,0,0,0,0,0,0,0,0,0,64,
scooby_state_6a321e|58|1 64,0,0,0,0,0,0,0,0,0,0,0,0,0,0,64,
scooby_state_6a3210|3|1 64,0,0,0,0,0,0,0,0,0,0,0,0,0,0,64,
scooby_state_6a321e|62|1 64,0,0,0,0,0,0,0,0,0,0,0,0,0,0,64,
scooby_state_6a3210|4|1 64,0,0,0,0,0,0,0,0,0,0,0,0,0,0,64,
scooby_state_6a3210|60|1 64,0,0,0,0,0,0,0,0,0,0,0,0,0,0,64,
scooby_state_6a3210|21|1 64,0,0,0,0,0,0,0,0,0,0,0,0,0,0,64,
scooby_state_6a3210|14|1 64,0,0,0,0,0,0,0,0,0,0,0,0,0,0,64,
scooby_state_6a321e|57|1 64,0,0,0,0,0,0,0,0,0,0,0,0,0,0,64,
scooby_state_6a321e|46|1 64,0,0,0,0,0,0,0,0,0,0,0,0,0,0,64,
scooby_state_6a321e|61|1 64,0,0,0,0,0,0,0,0,0,0,0,0,0,0,64,
scooby_state_6a321e|1|1 64,0,0,0,0,0,0,0,0,0,0,0,0,0,0,64,
scooby_state_6a3210|5|1 64,0,0,0,0,0,0,0,0,0,0,0,0,0,0,64,
scooby_state_6a3210|7|1 63,0,0,0,0,0,0,0,0,1,0,0,0,0,0,64,
scooby_state_6a3210|9|1 64,0,0,0,0,0,0,0,0,0,0,0,0,0,0,64,
scooby_state_6a321e|48|1 64,0,0,0,0,0,0,0,0,0,0,0,0,0,0,64,
scooby_state_6a3210|16|1 64,0,0,0,0,0,0,0,0,0,0,0,0,0,0,64,
scooby_state_6a321e|44|1 64,0,0,0,0,0,0,0,0,0,0,0,0,0,0,64,
scooby_state_6a3210|61|1 64,0,0,0,0,0,0,0,0,0,0,0,0,0,0,64,
scooby_state_6a321e|59|1 64,0,0,0,0,0,0,0,0,0,0,0,0,0,0,64,
scooby_state_6a321e|54|1 64,0,0,0,0,0,0,0,0,0,0,0,0,0,0,64,
scooby_state_6a321e|2|1 64,0,0,0,0,0,0,0,0,0,0,0,0,0,0,64,
scooby_state_6a321e|63|1 63,0,0,0,0,0,0,0,0,0,0,0,0,1,0,64,
scooby_state_6a321e|55|1 64,0,0,0,0,0,0,0,0,0,0,0,0,0,0,64,
scooby_state_6a3210|11|1 64,0,0,0,0,0,0,0,0,0,0,0,0,0,0,64,
scooby_state_6a3210|8|1 64,0,0,0,0,0,0,0,0,0,0,0,0,0,0,64,
scooby_state_6a3210|19|1 64,0,0,0,0,0,0,0,0,0,0,0,0,0,0,64,
scooby_state_6a3210|22|1 64,0,0,0,0,0,0,0,0,0,0,0,0,0,0,64,
scooby_state_6a321e|9|1 64,0,0,0,0,0,0,0,0,0,0,0,0,0,0,64,
scooby_state_6a321e|50|1 64,0,0,0,0,0,0,0,0,0,0,0,0,0,0,64,
scooby_state_6a3210|13|1 64,0,0,0,0,0,0,0,0,0,0,0,0,0,0,64,
scooby_state_6a321e|56|1 64,0,0,0,0,0,0,0,0,0,0,0,0,0,0,64,
scooby_state_6a3210|59|1 64,0,0,0,0,0,0,0,0,0,0,0,0,0,0,64,
scooby_state_6a321e|8|1 64,0,0,0,0,0,0,0,0,0,0,0,0,0,0,64,
scooby_state_6a3210|1|1 64,0,0,0,0,0,0,0,0,0,0,0,0,0,0,64,
scooby_state_6a3210|62|1 64,0,0,0,0,0,0,0,0,0,0,0,0,0,0,64,
scooby_state_6a3210|2|1 64,0,0,0,0,0,0,0,0,0,0,0,0,0,0,64,
scooby_state_6a3210|20|1 64,0,0,0,0,0,0,0,0,0,0,0,0,0,0,64,
scooby_state_6a321e|5|1 64,0,0,0,0,0,0,0,0,0,0,0,0,0,0,64,
scooby_state_6a321e|3|1 63,0,0,0,0,0,0,0,1,0,0,0,0,0,0,64,
scooby_state_6a321e|49|1 64,0,0,0,0,0,0,0,0,0,0,0,0,0,0,64,
scooby_state_6a3210|23|1 64,0,0,0,0,0,0,0,0,0,0,0,0,0,0,64,
scooby_state_6a3210|15|1 64,0,0,0,0,0,0,0,0,0,0,0,0,0,0,64,
scooby_state_6a3210|17|1 64,0,0,0,0,0,0,0,0,0,0,0,0,0,0,64,
scooby_state_6a321e|51|1 64,0,0,0,0,0,0,0,0,0,0,0,0,0,0,64,
scooby_state_6a321e|45|1 63,1,0,0,0,0,0,0,0,0,0,0,0,0,0,64,
scooby_state_6a321e|4|1 64,0,0,0,0,0,0,0,0,0,0,0,0,0,0,64,
scooby_state_6a321e|7|1 64,0,0,0,0,0,0,0,0,0,0,0,0,0,0,64,
scooby_state_6a3210|63|1 64,0,0,0,0,0,0,0,0,0,0,0,0,0,0,64,
scooby_state_6a321e|52|1 64,0,0,0,0,0,0,0,0,0,0,0,0,0,0,64,
scooby_state_6a3c8b|36|1 61,0,0,0,0,0,0,0,0,0,0,0,0,0,0,61,
scooby_state_6a3c8b|31|1 61,0,0,0,0,0,0,0,0,0,0,0,0,0,0,61,
scooby_state_6a3c8b|37|1 61,0,0,0,0,0,0,0,0,0,0,0,0,0,0,61,
scooby_state_6a3c8b|30|1 61,0,0,0,0,0,0,0,0,0,0,0,0,0,0,61,
scooby_state_6a3c8b|34|1 61,0,0,0,0,0,0,0,0,0,0,0,0,0,0,61,
scooby_state_6a3c8b|32|1 61,0,0,0,0,0,0,0,0,0,0,0,0,0,0,61,
scooby_state_6a3c8b|33|1 61,0,0,0,0,0,0,0,0,0,0,0,0,0,0,61,
scooby_state_6a3c8b|35|1 61,0,0,0,0,0,0,0,0,0,0,0,0,0,0,61,
scooby_state_6a3c8b|28|1 60,0,0,0,0,0,0,0,0,0,0,0,0,0,0,60,
scooby_state_6a3c8b|25|1 60,0,0,0,0,0,0,0,0,0,0,0,0,0,0,60,
scooby_state_6a3c8b|23|1 60,0,0,0,0,0,0,0,0,0,0,0,0,0,0,60,
scooby_state_6a3c8b|29|1 60,0,0,0,0,0,0,0,0,0,0,0,0,0,0,60,
scooby_state_6a3c8b|24|1 60,0,0,0,0,0,0,0,0,0,0,0,0,0,0,60,
scooby_state_6a3c8b|18|1 60,0,0,0,0,0,0,0,0,0,0,0,0,0,0,60,
scooby_state_6a3c8b|20|1 59,0,0,0,0,0,0,0,0,1,0,0,0,0,0,60,
scooby_state_6a3c8b|21|1 60,0,0,0,0,0,0,0,0,0,0,0,0,0,0,60,
scooby_state_6a3c8b|17|1 60,0,0,0,0,0,0,0,0,0,0,0,0,0,0,60,
scooby_state_6a3c8b|10|1 60,0,0,0,0,0,0,0,0,0,0,0,0,0,0,60,
scooby_state_6a3cbf|0|-63 60,0,0,0,0,0,0,0,0,0,0,0,0,0,0,60,
scooby_state_6a3c8b|26|1 60,0,0,0,0,0,0,0,0,0,0,0,0,0,0,60,
scooby_state_6a3c8b|16|1 60,0,0,0,0,0,0,0,0,0,0,0,0,0,0,60,
[...]
scooby_state_6a42b1|19|9 1,0,0,0,0,0,0,0,0,0,0,0,0,0,0,1,
scooby_state_6a4298|17|-17 1,0,0,0,0,0,0,0,0,0,0,0,0,0,0,1,
scooby_state_6a3c5f|47|9 1,0,0,0,0,0,0,0,0,0,0,0,0,0,0,1,
scooby_state_6a42b1|5|1 1,0,0,0,0,0,0,0,0,0,0,0,0,0,0,1,
scooby_state_6a3beb|8|0 1,0,0,0,0,0,0,0,0,0,0,0,0,0,0,1,
scooby_state_6a3bf7|43|0 1,0,0,0,0,0,0,0,0,0,0,0,0,0,0,1,
scooby_state_6a3bdf|8|8 1,0,0,0,0,0,0,0,0,0,0,0,0,0,0,1,
scooby_state_6a3c1b|7|0 1,0,0,0,0,0,0,0,0,0,0,0,0,0,0,1,
scooby_state_6a3cbf|39|9 1,0,0,0,0,0,0,0,0,0,0,0,0,0,0,1,
scooby_state_6a3c64|38|9 1,0,0,0,0,0,0,0,0,0,0,0,0,0,0,1,
scooby_state_6a3c76|16|0 1,0,0,0,0,0,0,0,0,0,0,0,0,0,0,1,
scooby_state_6a3cb7|22|9 1,0,0,0,0,0,0,0,0,0,0,0,0,0,0,1,
scooby_state_6a4f25|60|9 1,0,0,0,0,0,0,0,0,0,0,0,0,0,0,1,
scooby_state_6a4f10|45|17 1,0,0,0,0,0,0,0,0,0,0,0,0,0,0,1,
scooby_state_6a4298|48|-8 1,0,0,0,0,0,0,0,0,0,0,0,0,0,0,1,
scooby_state_6a42b6|49|9 1,0,0,0,0,0,0,0,0,0,0,0,0,0,0,1,
scooby_state_6a3083|24|1 1,0,0,0,0,0,0,0,0,0,0,0,0,0,0,1,
scooby_state_6a3c27|33|9 1,0,0,0,0,0,0,0,0,0,0,0,0,0,0,1,
scooby_state_6a4298|51|-8 1,0,0,0,0,0,0,0,0,0,0,0,0,0,0,1,
scooby_state_6a305d|0|-9 1,0,0,0,0,0,0,0,0,0,0,0,0,0,0,1,
scooby_state_6a4298|27|-17 1,0,0,0,0,0,0,0,0,0,0,0,0,0,0,1,
scooby_state_6a3c7b|58|8 1,0,0,0,0,0,0,0,0,0,0,0,0,0,0,1,
scooby_state_6a429d|20|-17 1,0,0,0,0,0,0,0,0,0,0,0,0,0,0,1,
scooby_state_6a3ce0|3|0 1,0,0,0,0,0,0,0,0,0,0,0,0,0,0,1,
scooby_state_6a4e37|36|1 1,0,0,0,0,0,0,0,0,0,0,0,0,0,0,1,
scooby_state_6a4ac4|43|1 1,0,0,0,0,0,0,0,0,0,0,0,0,0,0,1,
scooby_state_6a3062|23|17 1,0,0,0,0,0,0,0,0,0,0,0,0,0,0,1,
scooby_state_6a3c4e|55|9 1,0,0,0,0,0,0,0,0,0,0,0,0,0,0,1,
scooby_state_6a3c1b|36|9 1,0,0,0,0,0,0,0,0,0,0,0,0,0,0,1,
scooby_state_6a4ebb|14|10 1,0,0,0,0,0,0,0,0,0,0,0,0,0,0,1,
scooby_state_6a3c4e|41|9 1,0,0,0,0,0,0,0,0,0,0,0,0,0,0,1,
scooby_state_6a3781|30|1 1,0,0,0,0,0,0,0,0,0,0,0,0,0,0,1,
scooby_state_6a37c1|31|1 1,0,0,0,0,0,0,0,0,0,0,0,0,0,0,1,
scooby_state_6a3791|31|17 1,0,0,0,0,0,0,0,0,0,0,0,0,0,0,1,
scooby_state_6a2ee8|59|0 1,0,0,0,0,0,0,0,0,0,0,0,0,0,0,1,
scooby_state_6a3047|1|1 1,0,0,0,0,0,0,0,0,0,0,0,0,0,0,1,
scooby_state_6a2f77|59|5 0,1,0,0,0,0,0,0,0,0,0,0,0,0,0,1,
scooby_state_6a3058|46|9 1,0,0,0,0,0,0,0,0,0,0,0,0,0,0,1,
scooby_state_6a3c64|6|0 1,0,0,0,0,0,0,0,0,0,0,0,0,0,0,1,
scooby_state_6a3c4e|24|9 1,0,0,0,0,0,0,0,0,0,0,0,0,0,0,1,
scooby_state_6a3cd0|7|0 1,0,0,0,0,0,0,0,0,0,0,0,0,0,0,1,
scooby_state_6a3c33|35|9 1,0,0,0,0,0,0,0,0,0,0,0,0,0,0,1,
scooby_state_6a3c27|27|9 1,0,0,0,0,0,0,0,0,0,0,0,0,0,0,1,
scooby_state_6a3c3b|50|-7 1,0,0,0,0,0,0,0,0,0,0,0,0,0,0,1,
scooby_state_6a3c7b|17|1 1,0,0,0,0,0,0,0,0,0,0,0,0,0,0,1,
scooby_state_6a3bf7|5|0 1,0,0,0,0,0,0,0,0,0,0,0,0,0,0,1,
scooby_state_6a3c03|46|-9 1,0,0,0,0,0,0,0,0,0,0,0,0,0,0,1,
scooby_state_6a3ce0|46|9 1,0,0,0,0,0,0,0,0,0,0,0,0,0,0,1,
scooby_state_6a3c03|47|1 1,0,0,0,0,0,0,0,0,0,0,0,0,0,0,1,
scooby_state_6a3c0f|63|1 1,0,0,0,0,0,0,0,0,0,0,0,0,0,0,1,
scooby_state_6a3cbf|0|-56 1,0,0,0,0,0,0,0,0,0,0,0,0,0,0,1,
scooby_state_6a3083|52|8 1,0,0,0,0,0,0,0,0,0,0,0,0,0,0,1,
scooby_state_6a3062|29|17 1,0,0,0,0,0,0,0,0,0,0,0,0,0,0,1,
scooby_state_6a3c27|59|9 1,0,0,0,0,0,0,0,0,0,0,0,0,0,0,1,
scooby_state_6a305d|23|-17 1,0,0,0,0,0,0,0,0,0,0,0,0,0,0,1,
scooby_state_6a3058|47|9 1,0,0,0,0,0,0,0,0,0,0,0,0,0,0,1,
scooby_state_6a305d|24|-17 1,0,0,0,0,0,0,0,0,0,0,0,0,0,0,1,
scooby_state_6a3083|56|9 1,0,0,0,0,0,0,0,0,0,0,0,0,0,0,1,
scooby_state_6a3083|61|18 1,0,0,0,0,0,0,0,0,0,0,0,0,0,0,1,
scooby_state_6a3c1b|62|9 1,0,0,0,0,0,0,0,0,0,0,0,0,0,0,1,
scooby_state_6a3c48|59|9 1,0,0,0,0,0,0,0,0,0,0,0,0,0,0,1,
scooby_state_6a3cb7|51|9 1,0,0,0,0,0,0,0,0,0,0,0,0,0,0,1,
scooby_state_6a3bdf|47|0 1,0,0,0,0,0,0,0,0,0,0,0,0,0,0,1,
scooby_state_6a4f59|11|1 1,0,0,0,0,0,0,0,0,0,0,0,0,0,0,1,
scooby_state_6a3c33|21|9 1,0,0,0,0,0,0,0,0,0,0,0,0,0,0,1,
scooby_state_6a3c76|17|1 1,0,0,0,0,0,0,0,0,0,0,0,0,0,0,1,
scooby_state_6a3c3b|35|-28 1,0,0,0,0,0,0,0,0,0,0,0,0,0,0,1,
scooby_state_6a3c0f|46|-9 1,0,0,0,0,0,0,0,0,0,0,0,0,0,0,1,
scooby_state_6a4e5b|37|9 1,0,0,0,0,0,0,0,0,0,0,0,0,0,0,1,
scooby_state_6a4298|21|-8 1,0,0,0,0,0,0,0,0,0,0,0,0,0,0,1,
scooby_state_6a4ebb|51|9 1,0,0,0,0,0,0,0,0,0,0,0,0,0,0,1,
scooby_state_6a3c1b|13|9 1,0,0,0,0,0,0,0,0,0,0,0,0,0,0,1,
scooby_state_6a42c7|44|9 1,0,0,0,0,0,0,0,0,0,0,0,0,0,0,1,
scooby_state_6a4e5b|8|0 1,0,0,0,0,0,0,0,0,0,0,0,0,0,0,1,
scooby_state_6a3c3b|23|0 1,0,0,0,0,0,0,0,0,0,0,0,0,0,0,1,
scooby_state_6a3d9d|22|-1 1,0,0,0,0,0,0,0,0,0,0,0,0,0,0,1,
scooby_state_6a3c03|23|-9 1,0,0,0,0,0,0,0,0,0,0,0,0,0,0,1,
scooby_state_6a3062|6|0 1,0,0,0,0,0,0,0,0,0,0,0,0,0,0,1,
scooby_state_6a42cc|58|9 1,0,0,0,0,0,0,0,0,0,0,0,0,0,0,1,
scooby_state_6a3cbf|53|0 1,0,0,0,0,0,0,0,0,0,0,0,0,0,0,1,
scooby_state_6a3c64|35|9 1,0,0,0,0,0,0,0,0,0,0,0,0,0,0,1,
scooby_state_6a305d|23|-18 1,0,0,0,0,0,0,0,0,0,0,0,0,0,0,1,
scooby_state_6a3210|0|-58 1,0,0,0,0,0,0,0,0,0,0,0,0,0,0,1,
scooby_state_6a4e37|1|-8 1,0,0,0,0,0,0,0,0,0,0,0,0,0,0,1,
scooby_state_6a42b6|3|-8 1,0,0,0,0,0,0,0,0,0,0,0,0,0,0,1,
scooby_state_6a3088|59|1 1,0,0,0,0,0,0,0,0,0,0,0,0,0,0,1,
scooby_state_6a4001|0|-19 1,0,0,0,0,0,0,0,0,0,0,0,0,0,0,1,
scooby_state_6a3083|59|1 1,0,0,0,0,0,0,0,0,0,0,0,0,0,0,1,
scooby_state_6a3c0f|18|1 1,0,0,0,0,0,0,0,0,0,0,0,0,0,0,1,
scooby_state_6a4fc1|63|1 1,0,0,0,0,0,0,0,0,0,0,0,0,0,0,1,
scooby_state_6a3c76|41|7 1,0,0,0,0,0,0,0,0,0,0,0,0,0,0,1,
scooby_state_6a3cb7|33|9 1,0,0,0,0,0,0,0,0,0,0,0,0,0,0,1,
scooby_state_6a4298|1|-17 1,0,0,0,0,0,0,0,0,0,0,0,0,0,0,1,
scooby_state_6a42cc|47|9 1,0,0,0,0,0,0,0,0,0,0,0,0,0,0,1,
scooby_state_6a4e37|41|-9 1,0,0,0,0,0,0,0,0,0,0,0,0,0,0,1,
scooby_state_6a3c33|3|-60 1,0,0,0,0,0,0,0,0,0,0,0,0,0,0,1,
scooby_state_6a42c7|11|9 1,0,0,0,0,0,0,0,0,0,0,0,0,0,0,1,
scooby_state_6a4298|12|-17 1,0,0,0,0,0,0,0,0,0,0,0,0,0,0,1,
scooby_state_6a3cbf|47|9 1,0,0,0,0,0,0,0,0,0,0,0,0,0,0,1,
scooby_state_6a3c8b|26|9 1,0,0,0,0,0,0,0,0,0,0,0,0,0,0,1,
scooby_state_6a4f59|32|1 1,0,0,0,0,0,0,0,0,0,0,0,0,0,0,1,
scooby_state_6a3c64|44|9 1,0,0,0,0,0,0,0,0,0,0,0,0,0,0,1,
scooby_state_6a3062|32|9 1,0,0,0,0,0,0,0,0,0,0,0,0,0,0,1,
scooby_state_6a3bdf|56|0 1,0,0,0,0,0,0,0,0,0,0,0,0,0,0,1,
scooby_state_6a3c8b|28|9 1,0,0,0,0,0,0,0,0,0,0,0,0,0,0,1,
scooby_state_6a31c4|7|1 1,0,0,0,0,0,0,0,0,0,0,0,0,0,0,1,
scooby_state_6a42b6|0|-8 1,0,0,0,0,0,0,0,0,0,0,0,0,0,0,1,
scooby_state_6a3cd0|59|9 1,0,0,0,0,0,0,0,0,0,0,0,0,0,0,1,
scooby_state_6a305d|62|9 1,0,0,0,0,0,0,0,0,0,0,0,0,0,0,1,
scooby_state_6a42cc|45|9 1,0,0,0,0,0,0,0,0,0,0,0,0,0,0,1,
scooby_state_6a3cd0|38|9 1,0,0,0,0,0,0,0,0,0,0,0,0,0,0,1,
scooby_state_6a42b1|47|8 1,0,0,0,0,0,0,0,0,0,0,0,0,0,0,1,
scooby_state_6a3c76|35|0 1,0,0,0,0,0,0,0,0,0,0,0,0,0,0,1,
scooby_state_6a3c90|20|-8 1,0,0,0,0,0,0,0,0,0,0,0,0,0,0,1,
scooby_state_6a3bdf|56|1 1,0,0,0,0,0,0,0,0,0,0,0,0,0,0,1,
scooby_state_6a3bdf|16|0 1,0,0,0,0,0,0,0,0,0,0,0,0,0,0,1,
scooby_state_6a3cd0|27|9 1,0,0,0,0,0,0,0,0,0,0,0,0,0,0,1,
scooby_state_6a39c6|13|1 1,0,0,0,0,0,0,0,0,0,0,0,0,0,0,1,
scooby_state_6a42c7|10|8 1,0,0,0,0,0,0,0,0,0,0,0,0,0,0,1,
scooby_state_6a42b6|60|9 1,0,0,0,0,0,0,0,0,0,0,0,0,0,0,1,
scooby_state_6a3c64|56|9 1,0,0,0,0,0,0,0,0,0,0,0,0,0,0,1,
scooby_state_6a3c8b|22|9 1,0,0,0,0,0,0,0,0,0,0,0,0,0,0,1,
scooby_state_6a42b1|59|9 1,0,0,0,0,0,0,0,0,0,0,0,0,0,0,1,
scooby_state_6a3ac0|43|1 1,0,0,0,0,0,0,0,0,0,0,0,0,0,0,1,
scooby_state_6a3050|36|-17 1,0,0,0,0,0,0,0,0,0,0,0,0,0,0,1,
scooby_state_6a3c4e|36|9 1,0,0,0,0,0,0,0,0,0,0,0,0,0,0,1,
scooby_state_6a39b6|12|1 1,0,0,0,0,0,0,0,0,0,0,0,0,0,0,1,
scooby_state_6a4e06|25|9 1,0,0,0,0,0,0,0,0,0,0,0,0,0,0,1,
scooby_state_6a3088|3|0 1,0,0,0,0,0,0,0,0,0,0,0,0,0,0,1,
scooby_state_6a4ede|13|0 1,0,0,0,0,0,0,0,0,0,0,0,0,0,0,1,
scooby_state_6a3900|36|1 1,0,0,0,0,0,0,0,0,0,0,0,0,0,0,1,
scooby_state_6a42c7|14|9 1,0,0,0,0,0,0,0,0,0,0,0,0,0,0,1,
scooby_state_6a3c0f|28|-9 1,0,0,0,0,0,0,0,0,0,0,0,0,0,0,1,
scooby_state_6a3c27|4|0 1,0,0,0,0,0,0,0,0,0,0,0,0,0,0,1,
scooby_state_6a3d85|54|1 1,0,0,0,0,0,0,0,0,0,0,0,0,0,0,1,
scooby_state_6a3050|25|-8 1,0,0,0,0,0,0,0,0,0,0,0,0,0,0,1,
scooby_state_6a3c90|16|-8 1,0,0,0,0,0,0,0,0,0,0,0,0,0,0,1,
scooby_state_6a3c03|18|1 1,0,0,0,0,0,0,0,0,0,0,0,0,0,0,1,
scooby_state_6a3c64|58|9 1,0,0,0,0,0,0,0,0,0,0,0,0,0,0,1,
scooby_state_6a3d43|25|1 1,0,0,0,0,0,0,0,0,0,0,0,0,0,0,1,
scooby_state_6a3050|17|9 1,0,0,0,0,0,0,0,0,0,0,0,0,0,0,1,
scooby_state_6a3083|34|8 1,0,0,0,0,0,0,0,0,0,0,0,0,0,0,1,
scooby_state_6a4e7e|0|-1 1,0,0,0,0,0,0,0,0,0,0,0,0,0,0,1,
scooby_state_6a4f59|42|1 1,0,0,0,0,0,0,0,0,0,0,0,0,0,0,1,
scooby_state_6a3c1b|44|9 1,0,0,0,0,0,0,0,0,0,0,0,0,0,0,1,
scooby_state_6a3050|24|1 1,0,0,0,0,0,0,0,0,0,0,0,0,0,0,1,
scooby_state_6a3062|3|0 1,0,0,0,0,0,0,0,0,0,0,0,0,0,0,1,
scooby_state_6a3062|47|9 1,0,0,0,0,0,0,0,0,0,0,0,0,0,0,1,
scooby_state_6a3c33|44|9 1,0,0,0,0,0,0,0,0,0,0,0,0,0,0,1,
scooby_state_6a3ce0|26|9 1,0,0,0,0,0,0,0,0,0,0,0,0,0,0,1,
scooby_state_6a3a43|41|1 1,0,0,0,0,0,0,0,0,0,0,0,0,0,0,1,
scooby_state_6a4f80|62|1 1,0,0,0,0,0,0,0,0,0,0,0,0,0,0,1,
scooby_state_6a3c3b|23|-40 1,0,0,0,0,0,0,0,0,0,0,0,0,0,0,1,
scooby_state_6a42c7|36|9 1,0,0,0,0,0,0,0,0,0,0,0,0,0,0,1,
scooby_state_6a42b6|6|-8 1,0,0,0,0,0,0,0,0,0,0,0,0,0,0,1,
scooby_state_6a3b38|16|11 1,0,0,0,0,0,0,0,0,0,0,0,0,0,0,1,
scooby_state_6a3b6f|14|-2 1,0,0,0,0,0,0,0,0,0,0,0,0,0,0,1,
scooby_state_6a3cbf|4|0 1,0,0,0,0,0,0,0,0,0,0,0,0,0,0,1,
scooby_state_6a4e7e|54|-7 1,0,0,0,0,0,0,0,0,0,0,0,0,0,0,1,
scooby_state_6a3bdf|63|0 1,0,0,0,0,0,0,0,0,0,0,0,0,0,0,1,
scooby_state_6a42b1|30|17 1,0,0,0,0,0,0,0,0,0,0,0,0,0,0,1,
scooby_state_6a3c03|26|-9 1,0,0,0,0,0,0,0,0,0,0,0,0,0,0,1,
scooby_state_6a4e5b|22|9 1,0,0,0,0,0,0,0,0,0,0,0,0,0,0,1,
scooby_state_6a3c76|34|0 1,0,0,0,0,0,0,0,0,0,0,0,0,0,0,1,
scooby_state_6a3c76|8|0 1,0,0,0,0,0,0,0,0,0,0,0,0,0,0,1,
scooby_state_6a42b1|28|9 1,0,0,0,0,0,0,0,0,0,0,0,0,0,0,1,
scooby_state_6a3c4e|47|9 1,0,0,0,0,0,0,0,0,0,0,0,0,0,0,1,
scooby_state_6a42cc|48|9 1,0,0,0,0,0,0,0,0,0,0,0,0,0,0,1,
scooby_state_6a3c27|30|9 1,0,0,0,0,0,0,0,0,0,0,0,0,0,0,1,
scooby_state_6a3050|15|-9 1,0,0,0,0,0,0,0,0,0,0,0,0,0,0,1,
scooby_state_6a3801|32|1 1,0,0,0,0,0,0,0,0,0,0,0,0,0,0,1,
scooby_state_6a3ce0|14|9 1,0,0,0,0,0,0,0,0,0,0,0,0,0,0,1,
scooby_state_6a3088|20|18 1,0,0,0,0,0,0,0,0,0,0,0,0,0,0,1,
scooby_state_6a4298|15|-17 1,0,0,0,0,0,0,0,0,0,0,0,0,0,0,1,
scooby_state_6a3058|3|-60 1,0,0,0,0,0,0,0,0,0,0,0,0,0,0,1,
scooby_state_6a4195|59|4 1,0,0,0,0,0,0,0,0,0,0,0,0,0,0,1,
scooby_state_6a4f54|28|1 1,0,0,0,0,0,0,0,0,0,0,0,0,0,0,1,
scooby_state_6a3c90|13|1 1,0,0,0,0,0,0,0,0,0,0,0,0,0,0,1,
scooby_state_6a3865|24|-6 1,0,0,0,0,0,0,0,0,0,0,0,0,0,0,1,
scooby_state_6a4e37|18|-8 1,0,0,0,0,0,0,0,0,0,0,0,0,0,0,1,
scooby_state_6a4e5b|51|9 1,0,0,0,0,0,0,0,0,0,0,0,0,0,0,1,
scooby_state_6a4936|36|-27 1,0,0,0,0,0,0,0,0,0,0,0,0,0,0,1,
scooby_state_6a4298|43|1 1,0,0,0,0,0,0,0,0,0,0,0,0,0,0,1,
scooby_state_6a42b1|42|-8 1,0,0,0,0,0,0,0,0,0,0,0,0,0,0,1,
scooby_state_6a3050|38|-17 1,0,0,0,0,0,0,0,0,0,0,0,0,0,0,1,
scooby_state_6a3c4e|38|9 1,0,0,0,0,0,0,0,0,0,0,0,0,0,0,1,
scooby_state_6a4047|1|1 1,0,0,0,0,0,0,0,0,0,0,0,0,0,0,1,
scooby_state_6a3cd0|33|9 1,0,0,0,0,0,0,0,0,0,0,0,0,0,0,1,
scooby_state_6a3c48|41|9 1,0,0,0,0,0,0,0,0,0,0,0,0,0,0,1,
scooby_state_6a4e37|3|-8 1,0,0,0,0,0,0,0,0,0,0,0,0,0,0,1,
scooby_state_6a3f01|60|1 1,0,0,0,0,0,0,0,0,0,0,0,0,0,0,1,
scooby_state_6a3cb7|24|9 1,0,0,0,0,0,0,0,0,0,0,0,0,0,0,1,
scooby_state_6a3bdf|18|0 1,0,0,0,0,0,0,0,0,0,0,0,0,0,0,1,
scooby_state_6a3182|6|1 1,0,0,0,0,0,0,0,0,0,0,0,0,0,0,1,
scooby_state_6a4f54|49|1 1,0,0,0,0,0,0,0,0,0,0,0,0,0,0,1,
scooby_state_6a2f83|62|1 1,0,0,0,0,0,0,0,0,0,0,0,0,0,0,1,
scooby_state_6a3bd0|47|-5 1,0,0,0,0,0,0,0,0,0,0,0,0,0,0,1,
scooby_state_6a3bf7|8|0 1,0,0,0,0,0,0,0,0,0,0,0,0,0,0,1,
scooby_state_6a3cd0|44|9 1,0,0,0,0,0,0,0,0,0,0,0,0,0,0,1,
scooby_state_6a3887|34|1 1,0,0,0,0,0,0,0,0,0,0,0,0,0,0,1,
scooby_state_6a42b1|25|1 1,0,0,0,0,0,0,0,0,0,0,0,0,0,0,1,
scooby_state_6a3a98|36|1 1,0,0,0,0,0,0,0,0,0,0,0,0,0,0,1,
scooby_state_6a3c48|24|9 1,0,0,0,0,0,0,0,0,0,0,0,0,0,0,1,
scooby_state_6a42b1|59|17 1,0,0,0,0,0,0,0,0,0,0,0,0,0,0,1,
scooby_state_6a3c33|56|9 1,0,0,0,0,0,0,0,0,0,0,0,0,0,0,1,
scooby_state_6a4e06|9|9 1,0,0,0,0,0,0,0,0,0,0,0,0,0,0,1,
scooby_state_6a4298|55|-8 1,0,0,0,0,0,0,0,0,0,0,0,0,0,0,1,
scooby_state_6a3105|4|1 1,0,0,0,0,0,0,0,0,0,0,0,0,0,0,1,
scooby_state_6a4298|46|-17 1,0,0,0,0,0,0,0,0,0,0,0,0,0,0,1,
scooby_state_6a3c76|58|0 1,0,0,0,0,0,0,0,0,0,0,0,0,0,0,1,
scooby_state_6a4f14|27|-36 1,0,0,0,0,0,0,0,0,0,0,0,0,0,0,1,
scooby_state_6a42b1|60|1 1,0,0,0,0,0,0,0,0,0,0,0,0,0,0,1,
scooby_state_6a4f54|57|0 1,0,0,0,0,0,0,0,0,0,0,0,0,0,0,1,
scooby_state_6a4e37|32|-8 1,0,0,0,0,0,0,0,0,0,0,0,0,0,0,1,
scooby_state_6a305d|58|9 1,0,0,0,0,0,0,0,0,0,0,0,0,0,0,1,
scooby_state_6a3c7b|44|1 1,0,0,0,0,0,0,0,0,0,0,0,0,0,0,1,
scooby_state_6a3062|0|0 1,0,0,0,0,0,0,0,0,0,0,0,0,0,0,1,
scooby_state_6a3c64|27|9 1,0,0,0,0,0,0,0,0,0,0,0,0,0,0,1,
scooby_state_6a4e7e|0|-36 1,0,0,0,0,0,0,0,0,0,0,0,0,0,0,1,
scooby_state_6a4e37|42|1 1,0,0,0,0,0,0,0,0,0,0,0,0,0,0,1,
scooby_state_6a4e37|47|-8 1,0,0,0,0,0,0,0,0,0,0,0,0,0,0,1,
scooby_state_6a5002|0|0 1,0,0,0,0,0,0,0,0,0,0,0,0,0,0,1,
scooby_state_6a4e7e|35|6 1,0,0,0,0,0,0,0,0,0,0,0,0,0,0,1,
scooby_state_6a42b6|30|-8 1,0,0,0,0,0,0,0,0,0,0,0,0,0,0,1,

scooby_action_0_deg_dist 0,12,0,0,0,0,0,0,0,0,0,0,0,0,0,0,
scooby_action_12_deg_dist 0,13,0,0,0,0,0,0,0,0,0,0,0,0,0,0,
scooby_action_3_deg_dist 0,21,0,0,0,0,0,0,0,0,0,0,0,0,0,0,
scooby_action_32_deg_dist 0,14,0,0,0,0,0,0,0,0,0,0,0,0,0,0,
scooby_action_5_deg_dist 0,13,0,0,0,0,0,0,0,0,0,0,0,0,0,0,
scooby_action_4_deg_dist 0,14,0,0,0,0,0,0,0,0,0,0,0,0,0,0,
scooby_action_1_deg_dist 0,4571,3014,0,7599,0,99116,0,0,0,0,0,0,0,0,0,
scooby_action_30_deg_dist 0,16,0,0,0,0,0,0,0,0,0,0,0,0,0,0,
scooby_action_-3_deg_dist 0,10,0,0,0,0,0,0,0,0,0,0,0,0,0,0,
scooby_action_10_deg_dist 0,24,0,0,0,0,0,0,0,0,0,0,0,0,0,0,
scooby_action_-1_deg_dist 0,15,0,0,0,0,0,0,0,0,0,0,0,0,0,0,
scooby_action_23_deg_dist 0,15,0,0,0,0,0,0,0,0,0,0,0,0,0,0,
scooby_action_-6_deg_dist 0,10,0,0,0,0,0,0,0,0,0,0,0,0,0,0,
scooby_action_11_deg_dist 0,27,0,0,0,0,0,0,0,0,0,0,0,0,0,0,
scooby_action_22_deg_dist 0,16,0,0,0,0,0,0,0,0,0,0,0,0,0,0,

scooby_track_called 114520
scooby_track_same_address 137
scooby_track_evict 114127

scooby_reward_demand_called 114520
scooby_reward_demand_pt_not_found 3331
scooby_reward_demand_pt_found 111189
scooby_reward_demand_pt_found_total 111189
scooby_reward_demand_has_reward 0
scooby_reward_train_called 1359
scooby_reward_assign_reward_called 114374
scooby_reward_no_pref 12
scooby_reward_incorrect 1347
scooby_reward_correct_untimely 106280
scooby_reward_correct_timely 4909
scooby_reward_out_of_bounds 1826
scooby_reward_tracker_hit 0

scooby_reward_none_low_bw 12
scooby_reward_none_high_bw 0
scooby_reward_incorrect_low_bw 1347
scooby_reward_incorrect_high_bw 0
scooby_reward_correct_untimely_low_bw 106280
scooby_reward_correct_untimely_high_bw 0
scooby_reward_correct_timely_low_bw 4909
scooby_reward_correct_timely_high_bw 0
scooby_reward_out_of_bounds_low_bw 1826
scooby_reward_out_of_bounds_high_bw 0
scooby_reward_tracker_hit_low_bw 0
scooby_reward_tracker_hit_high_bw 0

scooby_reward_1 0,1309,106227,4874,1785,0,
scooby_reward_3 0,5,14,1,1,0,
scooby_reward_4 0,1,10,0,3,0,
scooby_reward_5 0,1,9,2,1,0,
scooby_reward_10 0,4,6,12,2,0,
scooby_reward_11 0,1,6,8,2,0,
scooby_reward_12 0,0,5,4,4,0,
scooby_reward_22 0,5,2,2,7,0,
scooby_reward_23 0,8,0,4,3,0,
scooby_reward_30 0,6,1,0,9,0,
scooby_reward_32 0,5,0,2,7,0,
scooby_reward_-1 0,0,0,0,0,0,
scooby_reward_-3 0,1,0,0,1,0,
scooby_reward_-6 0,1,0,0,1,0,
scooby_reward_0 12,0,0,0,0,0,

scooby_train_called 114126
scooby_train_compute_reward 1359

scooby_register_fill_called 69100
scooby_register_fill_set 5032
scooby_register_fill_set_total 5032

scooby_register_prefetch_hit_called 526285
scooby_register_prefetch_hit_set 110570
scooby_register_prefetch_hit_set_total 110570

scooby_pref_issue_scooby 597948

learning_engine_featurewise.action.called 114520
learning_engine_featurewise.action.explore 219
learning_engine_featurewise.action.exploit 114301
learning_engine_featurewise.action.fallback 0
learning_engine_featurewise.action.dyn_fallback_saved_bw 0
learning_engine_featurewise.action.dyn_fallback_saved_bw_acc 0
learning_engine_featurewise.action.index_1_explored 15
learning_engine_featurewise.action.index_1_exploited 114285
learning_engine_featurewise.action.index_3_explored 18
learning_engine_featurewise.action.index_3_exploited 3
learning_engine_featurewise.action.index_4_explored 13
learning_engine_featurewise.action.index_4_exploited 1
learning_engine_featurewise.action.index_5_explored 12
learning_engine_featurewise.action.index_5_exploited 1
learning_engine_featurewise.action.index_10_explored 23
learning_engine_featurewise.action.index_10_exploited 1
learning_engine_featurewise.action.index_11_explored 17
learning_engine_featurewise.action.index_11_exploited 10
learning_engine_featurewise.action.index_12_explored 13
learning_engine_featurewise.action.index_12_exploited 0
learning_engine_featurewise.action.index_22_explored 16
learning_engine_featurewise.action.index_22_exploited 0
learning_engine_featurewise.action.index_23_explored 15
learning_engine_featurewise.action.index_23_exploited 0
learning_engine_featurewise.action.index_30_explored 16
learning_engine_featurewise.action.index_30_exploited 0
learning_engine_featurewise.action.index_32_explored 14
learning_engine_featurewise.action.index_32_exploited 0
learning_engine_featurewise.action.index_-1_explored 15
learning_engine_featurewise.action.index_-1_exploited 0
learning_engine_featurewise.action.index_-3_explored 10
learning_engine_featurewise.action.index_-3_exploited 0
learning_engine_featurewise.action.index_-6_explored 10
learning_engine_featurewise.action.index_-6_exploited 0
learning_engine_featurewise.action.index_0_explored 12
learning_engine_featurewise.action.index_0_exploited 0
learning_engine_featurewise.learn.called 114126
learning_engine_featurewise.learn.su_skip_PC 0
learning_engine_featurewise.learn.su_skip_PC_Delta 0

learning_engine_featurewise.q_value_histogram.bucket_0 0
learning_engine_featurewise.q_value_histogram.bucket_1 0
learning_engine_featurewise.q_value_histogram.bucket_2 0
learning_engine_featurewise.q_value_histogram.bucket_3 0
learning_engine_featurewise.q_value_histogram.bucket_4 1398
learning_engine_featurewise.q_value_histogram.bucket_5 1939
learning_engine_featurewise.q_value_histogram.bucket_6 110964
learning_engine_featurewise.q_value_histogram.bucket_7 0

learning_engine_featurewise.consensus.total 114301
learning_engine_featurewise.consensus.feature_align_PC 113970
learning_engine_featurewise.consensus.feature_align_PC_ratio 1.00
learning_engine_featurewise.consensus.feature_align_PC_Delta 114237
learning_engine_featurewise.consensus.feature_align_PC_Delta_ratio 1.00
learning_engine_featurewise.consensus.feature_align_all 113906
learning_engine_featurewise.consensus.feature_align_all_ratio 1.00

learning_engine_featurewise.feature_PC_min_weight 1000000.00000000
learning_engine_featurewise.feature_PC_max_weight 0.00000000
learning_engine_featurewise.feature_PC_Delta_min_weight 1000000.00000000
learning_engine_featurewise.feature_PC_Delta_max_weight 0.00000000
unique_pcs 197
unique_pages 1095
unique_trigger_pcs 53
total_bitmaps_seen 0
unique_bitmaps_seen 0

scooby_bw_epochs 43444
scooby_bw_level_0 41415
scooby_bw_level_1 1857
scooby_bw_level_2 83
scooby_bw_level_3 89

scooby_ipc_epochs 0
scooby_ipc_level_0 0
scooby_ipc_level_1 0
scooby_ipc_level_2 0
scooby_ipc_level_3 0

scooby_cache_acc_epochs 10770
scooby_cache_acc_level_0 2
scooby_cache_acc_level_1 2
scooby_cache_acc_level_2 6
scooby_cache_acc_level_3 15
scooby_cache_acc_level_4 22
scooby_cache_acc_level_5 46
scooby_cache_acc_level_6 62
scooby_cache_acc_level_7 386
scooby_cache_acc_level_8 1538
scooby_cache_acc_level_9 8691

Channel_0_RQ_row_buffer_hit 43846
Channel_0_RQ_row_buffer_miss 15729
Channel_0_WQ_row_buffer_hit 1301
Channel_0_WQ_row_buffer_miss 2592
Channel_0_WQ_full 0
Channel_0_dbus_congested 10003

avg_congested_cycle 10

DRAM_bw_pochs 43444
DRAM_bw_level_0 41415
DRAM_bw_level_1 1857
DRAM_bw_level_2 83
DRAM_bw_level_3 89
