Original cmd-> /cluster/home/vlnitu/CA-Lab4-24-vlnitu/Pythia/bin/perceptron-no-multi-no-ship-1core --warmup_instructions=1000000 --simulation_instructions=10000000 --l2c_prefetcher_types=scooby --config=/cluster/home/vlnitu/CA-Lab4-24-vlnitu/Pythia/config/pythia.ini --mail-type=BEGIN,END  -traces /cluster/home/vlnitu/CA-Lab4-24-vlnitu/Pythia/traces/482.sphinx3-1100B.champsimtrace.xz
*************************************************
   ChampSim Multicore Out-of-Order Simulator
   Last compiled: Nov 19 2024 20:10:11
*************************************************
parsing config file: /cluster/home/vlnitu/CA-Lab4-24-vlnitu/Pythia/config/pythia.ini
unable to parse section: , name: mail-type, value: BEGIN,END

trace_0 /cluster/home/vlnitu/CA-Lab4-24-vlnitu/Pythia/traces/482.sphinx3-1100B.champsimtrace.xz
adding L2C_PREFETCHER: Scooby
Initialize SHIP state
warmup_instructions 1000000
simulation_instructions 10000000
champsim_seed 260
measure_ipc 0
measure_ipc_epoch 1000
measure_dram_bw 1
measure_dram_bw_epoch 256
measure_cache_acc 1
measure_cache_acc_epoch 1024
l1d_perfect 0
l2c_perfect 0
llc_perfect 0
l1d_semi_perfect 0
l2c_semi_perfect 0
llc_semi_perfect 0
semi_perfect_cache_page_buffer_size 64

num_cpus 1
cpu_freq 4000
dram_io_freq 2400
page_size 4096
block_size 64
max_read_per_cycle 8
max_fill_per_cycle 1
dram_channels 1
log2_dram_channels 0
dram_ranks 1
dram_banks 8
dram_rows 65536
dram_columns 128
dram_row_size 8
dram_size 4096
dram_pages 1048576

fetch_width 6
decode_width 6
exec_width 4
lq_width 2
sq_width 2
retire_width 4
scheduler_size 128
branch_mispredict_penalty 20
rob_size 256
lq_size 72
sq_size 56
num_instr_destinations_sparc 4
num_instr_destinations 2
num_instr_sources 4

itlb_set 16
itlb_way 8
itlb_rq_size 16
itlb_wq_size 16
itlb_pq_size 0
itlb_mshr_size 8
itlb_latency 1

dtlb_set 16
dtlb_way 4
dtlb_rq_size 16
dtlb_wq_size 16
dtlb_pq_size 0
dtlb_mshr_size 8
dtlb_latency 1

stlb_set 128
stlb_way 12
stlb_rq_size 32
stlb_wq_size 32
stlb_pq_size 0
stlb_mshr_size 16
stlb_latency 8

l1i_size 32
l1i_set 64
l1i_way 8
l1i_rq_size 64
l1i_wq_size 64
l1i_pq_size 8
l1i_mshr_size 8
l1i_latency 1

l1d_size 32
l1d_set 64
l1d_way 8
l1d_rq_size 64
l1d_wq_size 64
l1d_pq_size 8
l1d_mshr_size 16
l1d_latency 4

l2c_size 256
l2c_set 512
l2c_way 8
l2c_rq_size 32
l2c_wq_size 32
l2c_pq_size 32
l2c_mshr_size 32
l2c_latency 10

llc_size 2048
llc_set 2048
llc_way 16
llc_rq_size 32
llc_wq_size 32
llc_pq_size 32
llc_mshr_size 64
llc_latency 20

dram_channel_width 8
dram_wq_size 64
dram_rq_size 64
tRP 15
tRCD 15
tCAS 12.5
dram_dbus_turn_around_time 30
dram_write_high_wm 56
dram_write_low_wm 48
min_dram_writes_per_switch 16
dram_mtps 2400
dram_dbus_return_time 13

scooby_alpha 0.0065088
scooby_gamma 0.556301
scooby_epsilon 0.00182284
scooby_state_num_bits 10
scooby_max_states 1024
scooby_seed 200
scooby_policy EGreedy
scooby_learning_type SARSA
scooby_actions 1,3,4,5,10,11,12,22,23,30,32,-1,-3,-6,0,
scooby_max_actions 15
scooby_pt_size 256
scooby_st_size 64
scooby_max_pcs 5
scooby_max_offsets 5
scooby_max_deltas 5
scooby_reward_none -4
scooby_reward_incorrect -8
scooby_reward_correct_untimely 12
scooby_reward_correct_timely 20
scooby_brain_zero_init 0
scooby_enable_reward_all 0
scooby_enable_track_multiple 0
scooby_enable_reward_out_of_bounds 1
scooby_reward_out_of_bounds -12
scooby_state_type 1
scooby_state_hash_type 11
scooby_access_debug 0
scooby_print_access_debug 0
scooby_print_access_debug_pc deadbeef
scooby_print_access_debug_pc_count 0
scooby_print_trace 0
scooby_enable_state_action_stats 1
scooby_enable_reward_tracker_hit 0
scooby_reward_tracker_hit -2
scooby_enable_featurewise_engine 1
scooby_pref_degree 1
scooby_enable_dyn_degree 1
scooby_max_to_avg_q_thresholds 0.5,1,2,
scooby_dyn_degrees 1,2,4,4,
scooby_multi_deg_select_type 2
scooby_last_pref_offset_conf_thresholds 1,3,8,
scooby_dyn_degrees_type2 1,2,4,6,
scooby_action_tracker_size 2
scooby_high_bw_thresh 4
scooby_enable_hbw_reward 1
scooby_reward_hbw_correct_timely 20
scooby_reward_hbw_correct_untimely 12
scooby_reward_hbw_incorrect -14
scooby_reward_hbw_none -2
scooby_reward_hbw_out_of_bounds -12
scooby_reward_hbw_tracker_hit -2
scooby_last_pref_offset_conf_thresholds_hbw 1,3,8,
scooby_dyn_degrees_type2_hbw 1,2,4,6,

le_enable_trace 0
le_trace_interval 0
le_trace_file_name 
le_trace_state 0
le_enable_score_plot 0
le_plot_file_name 
le_plot_actions 
le_enable_action_trace 0
le_action_trace_interval 0
le_action_trace_name 
le_enable_action_plot 0

le_featurewise_active_features PC, PC_Delta
le_featurewise_num_tilings 3,3,
le_featurewise_num_tiles 128,128,
le_featurewise_hash_types 2,2,
le_featurewise_enable_tiling_offset 1,1,
le_featurewise_max_q_thresh 0.5
le_featurewise_enable_action_fallback 1
le_featurewise_feature_weights 1,1,
le_featurewise_enable_dynamic_weight 0
le_featurewise_weight_gradient 0.001
le_featurewise_disable_adjust_weight_all_features_align 1
le_featurewise_selective_update 0
le_featurewise_pooling_type 2
le_featurewise_enable_dyn_action_fallback 1
le_featurewise_bw_acc_check_level 1
le_featurewise_acc_thresh 2
le_featurewise_enable_trace 0
le_featurewise_trace_feature_type 0
le_featurewise_trace_feature 
le_featurewise_trace_interval 0
le_featurewise_trace_record_count 0
le_featurewise_trace_file_name 
le_featurewise_enable_score_plot 0
le_featurewise_plot_actions 
le_featurewise_plot_file_name 


Heartbeat CPU  0 instructions:    1000001 cycles:     367702 heartbeat IPC: 2.71960 cumulative IPC: 2.71960 (Simulation time: 0 hr 0 min 1 sec) 

Warmup complete CPU  0 instructions:    1000001 cycles:     367702 (Simulation time: 0 hr 0 min 1 sec) 

Heartbeat CPU  0 instructions:    2000003 cycles:    1295610 heartbeat IPC: 1.07770 cumulative IPC: 1.07770 (Simulation time: 0 hr 0 min 3 sec) 
Heartbeat CPU  0 instructions:    3000001 cycles:    2348721 heartbeat IPC: 0.94957 cumulative IPC: 1.00958 (Simulation time: 0 hr 0 min 4 sec) 
Heartbeat CPU  0 instructions:    4000000 cycles:    3451038 heartbeat IPC: 0.90718 cumulative IPC: 0.97297 (Simulation time: 0 hr 0 min 6 sec) 
Heartbeat CPU  0 instructions:    5000000 cycles:    4442238 heartbeat IPC: 1.00888 cumulative IPC: 0.98171 (Simulation time: 0 hr 0 min 7 sec) 
Heartbeat CPU  0 instructions:    6000002 cycles:    5048328 heartbeat IPC: 1.64992 cumulative IPC: 1.06823 (Simulation time: 0 hr 0 min 8 sec) 
Heartbeat CPU  0 instructions:    7000000 cycles:    5766604 heartbeat IPC: 1.39222 cumulative IPC: 1.11134 (Simulation time: 0 hr 0 min 10 sec) 
Heartbeat CPU  0 instructions:    8000000 cycles:    6719351 heartbeat IPC: 1.04960 cumulative IPC: 1.10208 (Simulation time: 0 hr 0 min 11 sec) 
Heartbeat CPU  0 instructions:    9000000 cycles:    7646876 heartbeat IPC: 1.07814 cumulative IPC: 1.09903 (Simulation time: 0 hr 0 min 13 sec) 
Heartbeat CPU  0 instructions:   10000000 cycles:    8670209 heartbeat IPC: 0.97720 cumulative IPC: 1.08401 (Simulation time: 0 hr 0 min 14 sec) 
Heartbeat CPU  0 instructions:   11000000 cycles:    9319226 heartbeat IPC: 1.54079 cumulative IPC: 1.11713 (Simulation time: 0 hr 0 min 15 sec) 
Finished CPU 0 instructions: 10000003 cycles: 8951525 cumulative IPC: 1.11713 (Simulation time: 0 hr 0 min 15 sec) 

ChampSim completed all CPUs

[ROI Statistics]
Core_0_instructions 10000003
Core_0_cycles 8951525
Core_0_IPC 1.11713

Core_0_branch_prediction_accuracy 97.30380
Core_0_branch_MPKI 2.44650
Core_0_average_ROB_occupancy_at_mispredict 139.20249

Core_0_L1D_total_access 1577724
Core_0_L1D_total_hit 1428566
Core_0_L1D_total_miss 149158
Core_0_L1D_loads 1437104
Core_0_L1D_load_hit 1296153
Core_0_L1D_load_miss 140951
Core_0_L1D_RFOs 140620
Core_0_L1D_RFO_hit 132413
Core_0_L1D_RFO_miss 8207
Core_0_L1D_prefetches 0
Core_0_L1D_prefetch_hit 0
Core_0_L1D_prefetch_miss 0
Core_0_L1D_writebacks 0
Core_0_L1D_writeback_hit 0
Core_0_L1D_writeback_miss 0
Core_0_L1D_prefetch_requested 0
Core_0_L1D_prefetch_dropped 0
Core_0_L1D_prefetch_issued 0
Core_0_L1D_prefetch_filled 0
Core_0_L1D_prefetch_useful 0
Core_0_L1D_prefetch_useless 0
Core_0_L1D_prefetch_late 0
Core_0_L1D_average_miss_latency 34.71477

Core_0_L1D_rq_access 2578533
Core_0_L1D_rq_forward 0
Core_0_L1D_rq_merged 1055962
Core_0_L1D_rq_to_cache 1522571
Core_0_L1D_rq_full 0

Core_0_L1D_wq_access 182319
Core_0_L1D_wq_forward 0
Core_0_L1D_wq_merged 275
Core_0_L1D_wq_to_cache 182044
Core_0_L1D_wq_full 12118

Core_0_L1D_pq_access 0
Core_0_L1D_pq_forward 0
Core_0_L1D_pq_merged 0
Core_0_L1D_pq_to_cache 0
Core_0_L1D_pq_full 0

Core_0_L1D_acc_epochs 8702
Core_0_L1D_acc_level_0 8702
Core_0_L1D_acc_level_1 0
Core_0_L1D_acc_level_2 0
Core_0_L1D_acc_level_3 0
Core_0_L1D_acc_level_4 0
Core_0_L1D_acc_level_5 0
Core_0_L1D_acc_level_6 0
Core_0_L1D_acc_level_7 0
Core_0_L1D_acc_level_8 0
Core_0_L1D_acc_level_9 0

Core_0_L1I_total_access 2418165
Core_0_L1I_total_hit 2417950
Core_0_L1I_total_miss 215
Core_0_L1I_loads 2418165
Core_0_L1I_load_hit 2417950
Core_0_L1I_load_miss 215
Core_0_L1I_RFOs 0
Core_0_L1I_RFO_hit 0
Core_0_L1I_RFO_miss 0
Core_0_L1I_prefetches 0
Core_0_L1I_prefetch_hit 0
Core_0_L1I_prefetch_miss 0
Core_0_L1I_writebacks 0
Core_0_L1I_writeback_hit 0
Core_0_L1I_writeback_miss 0
Core_0_L1I_prefetch_requested 0
Core_0_L1I_prefetch_dropped 0
Core_0_L1I_prefetch_issued 0
Core_0_L1I_prefetch_filled 0
Core_0_L1I_prefetch_useful 0
Core_0_L1I_prefetch_useless 0
Core_0_L1I_prefetch_late 0
Core_0_L1I_average_miss_latency 160.66047

Core_0_L1I_rq_access 10000001
Core_0_L1I_rq_forward 0
Core_0_L1I_rq_merged 7581675
Core_0_L1I_rq_to_cache 2418326
Core_0_L1I_rq_full 0

Core_0_L1I_wq_access 0
Core_0_L1I_wq_forward 0
Core_0_L1I_wq_merged 0
Core_0_L1I_wq_to_cache 0
Core_0_L1I_wq_full 0

Core_0_L1I_pq_access 0
Core_0_L1I_pq_forward 0
Core_0_L1I_pq_merged 0
Core_0_L1I_pq_to_cache 0
Core_0_L1I_pq_full 0

Core_0_L1I_acc_epochs 8702
Core_0_L1I_acc_level_0 8702
Core_0_L1I_acc_level_1 0
Core_0_L1I_acc_level_2 0
Core_0_L1I_acc_level_3 0
Core_0_L1I_acc_level_4 0
Core_0_L1I_acc_level_5 0
Core_0_L1I_acc_level_6 0
Core_0_L1I_acc_level_7 0
Core_0_L1I_acc_level_8 0
Core_0_L1I_acc_level_9 0

Core_0_L2C_total_access 650159
Core_0_L2C_total_hit 493094
Core_0_L2C_total_miss 157065
Core_0_L2C_loads 141166
Core_0_L2C_load_hit 119310
Core_0_L2C_load_miss 21856
Core_0_L2C_RFOs 8207
Core_0_L2C_RFO_hit 629
Core_0_L2C_RFO_miss 7578
Core_0_L2C_prefetches 489013
Core_0_L2C_prefetch_hit 361412
Core_0_L2C_prefetch_miss 127601
Core_0_L2C_writebacks 11773
Core_0_L2C_writeback_hit 11743
Core_0_L2C_writeback_miss 30
Core_0_L2C_prefetch_requested 617814
Core_0_L2C_prefetch_dropped 59
Core_0_L2C_prefetch_issued 617755
Core_0_L2C_prefetch_filled 140115
Core_0_L2C_prefetch_useful 111448
Core_0_L2C_prefetch_useless 28613
Core_0_L2C_prefetch_late 4105
Core_0_L2C_average_miss_latency 128.87675

Core_0_L2C_rq_access 149373
Core_0_L2C_rq_forward 0
Core_0_L2C_rq_merged 0
Core_0_L2C_rq_to_cache 149373
Core_0_L2C_rq_full 0

Core_0_L2C_wq_access 11773
Core_0_L2C_wq_forward 0
Core_0_L2C_wq_merged 0
Core_0_L2C_wq_to_cache 11773
Core_0_L2C_wq_full 0

Core_0_L2C_pq_access 617755
Core_0_L2C_pq_forward 0
Core_0_L2C_pq_merged 13446
Core_0_L2C_pq_to_cache 604309
Core_0_L2C_pq_full 0

Core_0_L2C_acc_epochs 8702
Core_0_L2C_acc_level_0 282
Core_0_L2C_acc_level_1 156
Core_0_L2C_acc_level_2 124
Core_0_L2C_acc_level_3 188
Core_0_L2C_acc_level_4 407
Core_0_L2C_acc_level_5 753
Core_0_L2C_acc_level_6 1104
Core_0_L2C_acc_level_7 1030
Core_0_L2C_acc_level_8 955
Core_0_L2C_acc_level_9 3703

Core_0_LLC_total_access 167756
Core_0_LLC_total_hit 55140
Core_0_LLC_total_miss 112616
Core_0_LLC_loads 17751
Core_0_LLC_load_hit 9190
Core_0_LLC_load_miss 8561
Core_0_LLC_RFOs 7577
Core_0_LLC_RFO_hit 4514
Core_0_LLC_RFO_miss 3063
Core_0_LLC_prefetches 131706
Core_0_LLC_prefetch_hit 30818
Core_0_LLC_prefetch_miss 100888
Core_0_LLC_writebacks 10722
Core_0_LLC_writeback_hit 10618
Core_0_LLC_writeback_miss 104
Core_0_LLC_prefetch_requested 0
Core_0_LLC_prefetch_dropped 0
Core_0_LLC_prefetch_issued 0
Core_0_LLC_prefetch_filled 113378
Core_0_LLC_prefetch_useful 1341
Core_0_LLC_prefetch_useless 87875
Core_0_LLC_prefetch_late 0
Core_0_LLC_average_miss_latency 139.34793

Core_0_LLC_rq_access 25329
Core_0_LLC_rq_forward 0
Core_0_LLC_rq_merged 0
Core_0_LLC_rq_to_cache 25328
Core_0_LLC_rq_full 0

Core_0_LLC_wq_access 10722
Core_0_LLC_wq_forward 1
Core_0_LLC_wq_merged 0
Core_0_LLC_wq_to_cache 10722
Core_0_LLC_wq_full 0

Core_0_LLC_pq_access 144223
Core_0_LLC_pq_forward 0
Core_0_LLC_pq_merged 0
Core_0_LLC_pq_to_cache 144223
Core_0_LLC_pq_full 0

Core_0_LLC_acc_epochs 9101
Core_0_LLC_acc_level_0 8805
Core_0_LLC_acc_level_1 149
Core_0_LLC_acc_level_2 54
Core_0_LLC_acc_level_3 20
Core_0_LLC_acc_level_4 7
Core_0_LLC_acc_level_5 32
Core_0_LLC_acc_level_6 6
Core_0_LLC_acc_level_7 4
Core_0_LLC_acc_level_8 1
Core_0_LLC_acc_level_9 23

Core_0_major_page_fault 0
Core_0_minor_page_fault 2222

scooby_st_lookup 153828
scooby_st_hit 147413
scooby_st_evict 6351
scooby_st_insert 6415
scooby_st_streaming 0

scooby_predict_called 153828
scooby_predict_out_of_bounds 4606
scooby_predict_action_1 135674
scooby_predict_issue_action_1 132519
scooby_predict_hit_action_1 3155
scooby_predict_out_of_bounds_action_1 2203
scooby_predict_action_3 831
scooby_predict_issue_action_3 786
scooby_predict_hit_action_3 45
scooby_predict_out_of_bounds_action_3 54
scooby_predict_action_4 4336
scooby_predict_issue_action_4 4243
scooby_predict_hit_action_4 93
scooby_predict_out_of_bounds_action_4 276
scooby_predict_action_5 1564
scooby_predict_issue_action_5 1528
scooby_predict_hit_action_5 36
scooby_predict_out_of_bounds_action_5 122
scooby_predict_action_10 539
scooby_predict_issue_action_10 504
scooby_predict_hit_action_10 35
scooby_predict_out_of_bounds_action_10 91
scooby_predict_action_11 518
scooby_predict_issue_action_11 477
scooby_predict_hit_action_11 41
scooby_predict_out_of_bounds_action_11 109
scooby_predict_action_12 483
scooby_predict_issue_action_12 459
scooby_predict_hit_action_12 24
scooby_predict_out_of_bounds_action_12 98
scooby_predict_action_22 1662
scooby_predict_issue_action_22 1624
scooby_predict_hit_action_22 38
scooby_predict_out_of_bounds_action_22 907
scooby_predict_action_23 327
scooby_predict_issue_action_23 307
scooby_predict_hit_action_23 20
scooby_predict_out_of_bounds_action_23 180
scooby_predict_action_30 274
scooby_predict_issue_action_30 261
scooby_predict_hit_action_30 13
scooby_predict_out_of_bounds_action_30 236
scooby_predict_action_32 215
scooby_predict_issue_action_32 205
scooby_predict_hit_action_32 10
scooby_predict_out_of_bounds_action_32 249
scooby_predict_action_-1 639
scooby_predict_issue_action_-1 589
scooby_predict_hit_action_-1 50
scooby_predict_out_of_bounds_action_-1 8
scooby_predict_action_-3 579
scooby_predict_issue_action_-3 548
scooby_predict_hit_action_-3 31
scooby_predict_out_of_bounds_action_-3 25
scooby_predict_action_-6 634
scooby_predict_issue_action_-6 606
scooby_predict_hit_action_-6 28
scooby_predict_out_of_bounds_action_-6 48
scooby_predict_action_0 947
scooby_predict_issue_action_0 0
scooby_predict_hit_action_0 0
scooby_predict_out_of_bounds_action_0 0
scooby_predict_multi_deg_called 116404
scooby_predict_predicted 617814
scooby_predict_multi_deg 473158
scooby_predict_multi_deg_2 113721
scooby_predict_multi_deg_3 102155
scooby_predict_multi_deg_4 100141
scooby_predict_multi_deg_5 79465
scooby_predict_multi_deg_6 77676
scooby_predict_multi_deg_7 0
scooby_predict_multi_deg_8 0
scooby_predict_multi_deg_9 0
scooby_predict_multi_deg_10 0
scooby_predict_multi_deg_11 0
scooby_predict_multi_deg_12 0
scooby_predict_multi_deg_13 0
scooby_predict_multi_deg_14 0
scooby_predict_multi_deg_15 0
scooby_predict_multi_deg_16 0

scooby_selected_deg_1 28252
scooby_selected_deg_2 9568
scooby_selected_deg_3 0
scooby_selected_deg_4 19869
scooby_selected_deg_5 0
scooby_selected_deg_6 86967
scooby_selected_deg_7 0
scooby_selected_deg_8 0
scooby_selected_deg_9 0
scooby_selected_deg_10 0
scooby_selected_deg_11 0
scooby_selected_deg_12 0
scooby_selected_deg_13 0
scooby_selected_deg_14 0
scooby_selected_deg_15 0
scooby_selected_deg_16 0

scooby_state_403bf7|4|1 358,0,0,0,0,0,1,0,0,0,0,0,0,0,0,359,
scooby_state_403bfc|4|1 358,0,0,0,0,0,0,1,0,0,0,0,0,0,0,359,
scooby_state_403bfc|3|1 357,0,0,0,1,0,0,0,0,0,0,0,0,0,0,358,
scooby_state_403bf7|3|1 356,0,0,0,0,1,0,0,0,0,0,0,0,0,1,358,
scooby_state_403bf7|6|1 347,0,0,0,0,0,0,0,0,0,0,0,0,0,0,347,
scooby_state_403bfc|0|0 346,0,0,0,0,0,1,0,0,0,0,0,0,0,0,347,
scooby_state_403bfc|6|1 347,0,0,0,0,0,0,0,0,0,0,0,0,0,0,347,
scooby_state_403bf7|0|0 346,0,0,0,1,0,0,0,0,0,0,0,0,0,0,347,
scooby_state_403bf7|18|1 344,0,0,1,0,0,0,0,0,0,0,1,0,0,0,346,
scooby_state_403bfc|16|1 344,0,1,0,0,1,0,0,0,0,0,0,0,0,0,346,
scooby_state_403bf7|16|1 346,0,0,0,0,0,0,0,0,0,0,0,0,0,0,346,
scooby_state_403bfc|18|1 346,0,0,0,0,0,0,0,0,0,0,0,0,0,0,346,
scooby_state_403bf7|2|1 345,0,0,0,0,0,0,0,0,0,0,0,0,0,0,345,
scooby_state_403bfc|2|1 345,0,0,0,0,0,0,0,0,0,0,0,0,0,0,345,
scooby_state_403bfc|15|1 344,0,0,0,0,0,0,0,0,0,0,0,1,0,0,345,
scooby_state_403bfc|7|1 345,0,0,0,0,0,0,0,0,0,0,0,0,0,0,345,
scooby_state_403bf7|7|1 345,0,0,0,0,0,0,0,0,0,0,0,0,0,0,345,
scooby_state_403bf7|15|1 344,1,0,0,0,0,0,0,0,0,0,0,0,0,0,345,
scooby_state_403bfc|17|1 344,0,0,0,0,0,0,0,0,0,0,0,0,0,0,344,
scooby_state_403bfc|19|1 344,0,0,0,0,0,0,0,0,0,0,0,0,0,0,344,
scooby_state_403bf7|14|1 344,0,0,0,0,0,0,0,0,0,0,0,0,0,0,344,
scooby_state_403bfc|14|1 343,0,0,0,0,1,0,0,0,0,0,0,0,0,0,344,
scooby_state_403bf7|19|1 344,0,0,0,0,0,0,0,0,0,0,0,0,0,0,344,
scooby_state_403bf7|17|1 342,0,0,1,0,0,0,0,0,0,1,0,0,0,0,344,
scooby_state_403bfc|13|1 342,0,0,0,0,0,0,0,0,0,0,0,0,0,0,342,
scooby_state_403bf7|13|1 340,0,0,0,1,0,0,0,0,1,0,0,0,0,0,342,
scooby_state_403bf7|5|1 341,0,0,0,0,0,0,0,0,0,0,0,0,0,0,341,
scooby_state_403bf7|12|1 340,0,0,0,0,1,0,0,0,0,0,0,0,0,0,341,
scooby_state_403bfc|12|1 341,0,0,0,0,0,0,0,0,0,0,0,0,0,0,341,
scooby_state_403bfc|5|1 340,1,0,0,0,0,0,0,0,0,0,0,0,0,0,341,
scooby_state_403bf7|20|1 337,0,0,0,0,0,0,1,0,0,0,0,0,0,0,338,
scooby_state_403bf7|8|1 337,0,0,0,1,0,0,0,0,0,0,0,0,0,0,338,
scooby_state_403bfc|20|1 338,0,0,0,0,0,0,0,0,0,0,0,0,0,0,338,
scooby_state_403bfc|8|1 338,0,0,0,0,0,0,0,0,0,0,0,0,0,0,338,
scooby_state_403bfc|11|1 338,0,0,0,0,0,0,0,0,0,0,0,0,0,0,338,
scooby_state_403bf7|11|1 336,0,0,0,0,0,1,0,1,0,0,0,0,0,0,338,
scooby_state_403bf7|1|1 336,0,0,0,0,0,0,0,0,0,0,0,0,0,0,336,
scooby_state_403bfc|1|1 336,0,0,0,0,0,0,0,0,0,0,0,0,0,0,336,
scooby_state_41c9d6|17|1 335,0,0,0,0,0,0,0,0,0,0,0,0,0,0,335,
scooby_state_41c9d6|19|1 333,0,0,0,0,0,0,0,1,0,0,0,1,0,0,335,
scooby_state_41c9d6|22|1 334,0,0,0,0,0,0,0,1,0,0,0,0,0,0,335,
scooby_state_41c9d6|9|1 333,1,0,0,0,1,0,0,0,0,0,0,0,0,0,335,
scooby_state_41c9d6|18|1 335,0,0,0,0,0,0,0,0,0,0,0,0,0,0,335,
scooby_state_41c9d6|21|1 335,0,0,0,0,0,0,0,0,0,0,0,0,0,0,335,
scooby_state_41c9d6|10|1 334,0,0,1,0,0,0,0,0,0,0,0,0,0,0,335,
scooby_state_41c9d6|13|1 335,0,0,0,0,0,0,0,0,0,0,0,0,0,0,335,
scooby_state_41c9d6|11|1 333,0,0,0,1,0,0,0,0,0,0,1,0,0,0,335,
scooby_state_41c9d6|20|1 335,0,0,0,0,0,0,0,0,0,0,0,0,0,0,335,
scooby_state_41c9d6|14|1 334,0,0,0,0,0,0,1,0,0,0,0,0,0,0,335,
scooby_state_41c9d6|16|1 334,0,1,0,0,0,0,0,0,0,0,0,0,0,0,335,
scooby_state_41c9d6|12|1 335,0,0,0,0,0,0,0,0,0,0,0,0,0,0,335,
scooby_state_41c9d6|15|1 335,0,0,0,0,0,0,0,0,0,0,0,0,0,0,335,
scooby_state_41c9d6|25|1 334,0,0,0,0,0,0,0,0,0,1,0,0,0,0,335,
scooby_state_41c9d6|42|1 334,0,0,0,0,0,0,0,0,0,0,0,0,0,0,334,
scooby_state_41c9d6|47|1 334,0,0,0,0,0,0,0,0,0,0,0,0,0,0,334,
scooby_state_403bf7|21|1 334,0,0,0,0,0,0,0,0,0,0,0,0,0,0,334,
scooby_state_41c9d6|34|1 333,0,0,0,0,0,0,1,0,0,0,0,0,0,0,334,
scooby_state_41c9d6|62|1 334,0,0,0,0,0,0,0,0,0,0,0,0,0,0,334,
scooby_state_41c9d6|57|1 334,0,0,0,0,0,0,0,0,0,0,0,0,0,0,334,
scooby_state_41c9d6|32|1 333,0,0,0,0,0,0,0,0,0,0,1,0,0,0,334,
scooby_state_41c9d6|60|1 334,0,0,0,0,0,0,0,0,0,0,0,0,0,0,334,
scooby_state_41c9d6|4|1 334,0,0,0,0,0,0,0,0,0,0,0,0,0,0,334,
scooby_state_41c9d6|45|1 333,0,1,0,0,0,0,0,0,0,0,0,0,0,0,334,
scooby_state_403bf7|9|1 334,0,0,0,0,0,0,0,0,0,0,0,0,0,0,334,
scooby_state_41c9d6|41|1 334,0,0,0,0,0,0,0,0,0,0,0,0,0,0,334,
scooby_state_41c9d6|33|1 333,1,0,0,0,0,0,0,0,0,0,0,0,0,0,334,
scooby_state_41c9d6|49|1 333,0,0,0,0,0,0,0,1,0,0,0,0,0,0,334,
scooby_state_41c9d6|28|1 331,0,0,0,0,0,0,0,0,0,2,0,1,0,0,334,
scooby_state_403bfc|9|1 332,0,0,0,1,0,0,0,0,1,0,0,0,0,0,334,
scooby_state_41c9d6|51|1 334,0,0,0,0,0,0,0,0,0,0,0,0,0,0,334,
scooby_state_41c9d6|2|1 334,0,0,0,0,0,0,0,0,0,0,0,0,0,0,334,
scooby_state_41c9d6|54|1 334,0,0,0,0,0,0,0,0,0,0,0,0,0,0,334,
scooby_state_41c9d6|48|1 332,0,0,0,0,0,0,0,1,0,0,1,0,0,0,334,
scooby_state_41c9d6|50|1 333,0,0,0,1,0,0,0,0,0,0,0,0,0,0,334,
scooby_state_403bfc|22|1 333,0,0,0,0,0,1,0,0,0,0,0,0,0,0,334,
scooby_state_41c9d6|53|1 332,0,0,0,0,0,0,0,0,1,0,0,1,0,0,334,
scooby_state_41c9d6|31|1 334,0,0,0,0,0,0,0,0,0,0,0,0,0,0,334,
scooby_state_403bf7|22|1 334,0,0,0,0,0,0,0,0,0,0,0,0,0,0,334,
scooby_state_41c9d6|46|1 334,0,0,0,0,0,0,0,0,0,0,0,0,0,0,334,
scooby_state_41c9d6|5|1 332,0,0,0,0,0,0,1,0,0,0,0,0,0,1,334,
scooby_state_41c9d6|30|1 333,0,0,1,0,0,0,0,0,0,0,0,0,0,0,334,
scooby_state_41c9d6|40|1 334,0,0,0,0,0,0,0,0,0,0,0,0,0,0,334,
scooby_state_403bfc|21|1 333,0,0,0,0,0,0,0,0,0,0,0,1,0,0,334,
scooby_state_41c9d6|44|1 334,0,0,0,0,0,0,0,0,0,0,0,0,0,0,334,
scooby_state_41c9d6|1|1 333,0,0,0,0,1,0,0,0,0,0,0,0,0,0,334,
scooby_state_41c9d6|52|1 334,0,0,0,0,0,0,0,0,0,0,0,0,0,0,334,
scooby_state_41c9d6|29|1 334,0,0,0,0,0,0,0,0,0,0,0,0,0,0,334,
scooby_state_41c9d6|8|1 333,0,0,1,0,0,0,0,0,0,0,0,0,0,0,334,
scooby_state_41c9d6|43|1 333,0,1,0,0,0,0,0,0,0,0,0,0,0,0,334,
scooby_state_41c9d6|61|1 332,1,0,0,0,0,0,0,0,0,0,0,0,0,0,333,
scooby_state_41c9d6|0|0 331,0,0,0,0,0,0,0,0,1,0,1,0,0,0,333,
scooby_state_41c9d6|63|1 332,0,0,0,0,0,1,0,0,0,0,0,0,0,0,333,
scooby_state_41c9d6|35|1 332,0,0,0,0,0,0,0,0,0,0,0,0,0,0,332,
scooby_state_41c9d6|37|1 332,0,0,0,0,0,0,0,0,0,0,0,0,0,0,332,
scooby_state_41c9d6|3|1 331,1,0,0,0,0,0,0,0,0,0,0,0,0,0,332,
scooby_state_41c9d6|6|1 332,0,0,0,0,0,0,0,0,0,0,0,0,0,0,332,
scooby_state_41c9d6|7|1 332,0,0,0,0,0,0,0,0,0,0,0,0,0,0,332,
scooby_state_41c9d6|26|1 330,0,0,0,0,0,0,0,0,1,0,0,0,0,0,331,
scooby_state_41c9d6|23|1 331,0,0,0,0,0,0,0,0,0,0,0,0,0,0,331,
scooby_state_41c9d6|27|1 331,0,0,0,0,0,0,0,0,0,0,0,0,0,0,331,
scooby_state_41c9d6|39|1 331,0,0,0,0,0,0,0,0,0,0,0,0,0,0,331,
scooby_state_41c9d6|24|1 331,0,0,0,0,0,0,0,0,0,0,0,0,0,0,331,
scooby_state_41c9d6|36|1 331,0,0,0,0,0,0,0,0,0,0,0,0,0,0,331,
scooby_state_41c9d6|56|1 330,0,0,0,0,0,0,0,0,0,0,0,0,0,0,330,
scooby_state_41c9d6|55|1 330,0,0,0,0,0,0,0,0,0,0,0,0,0,0,330,
scooby_state_41c9d6|59|1 330,0,0,0,0,0,0,0,0,0,0,0,0,0,0,330,
scooby_state_41c9d6|38|1 329,0,0,0,0,0,0,0,0,1,0,0,0,0,0,330,
scooby_state_41c9d6|58|1 329,0,0,0,0,1,0,0,0,0,0,0,0,0,0,330,
scooby_state_403bf7|10|1 329,0,0,0,0,0,0,0,0,0,0,0,0,0,0,329,
scooby_state_403bfc|10|1 329,0,0,0,0,0,0,0,0,0,0,0,0,0,0,329,
scooby_state_403bf7|23|1 324,0,0,0,0,0,0,0,0,0,0,0,0,0,0,324,
scooby_state_403bfc|23|1 323,0,0,0,0,0,0,0,0,0,1,0,0,0,0,324,
scooby_state_403bfc|27|1 321,0,0,0,0,0,0,0,0,0,0,1,0,0,0,322,
scooby_state_403bf7|27|1 321,0,0,0,0,0,1,0,0,0,0,0,0,0,0,322,
scooby_state_403bf7|28|1 319,0,0,0,0,0,0,0,0,0,0,1,0,0,0,320,
scooby_state_403bfc|28|1 320,0,0,0,0,0,0,0,0,0,0,0,0,0,0,320,
scooby_state_403bf7|25|1 318,0,0,0,0,0,0,0,0,1,0,0,0,0,0,319,
scooby_state_403bfc|25|1 319,0,0,0,0,0,0,0,0,0,0,0,0,0,0,319,
scooby_state_403bf7|26|1 315,0,0,0,0,0,0,0,0,0,0,1,0,0,0,316,
scooby_state_403bf7|56|1 315,0,0,0,1,0,0,0,0,0,0,0,0,0,0,316,
scooby_state_403bfc|26|1 316,0,0,0,0,0,0,0,0,0,0,0,0,0,0,316,
scooby_state_403bfc|56|1 314,2,0,0,0,0,0,0,0,0,0,0,0,0,0,316,
scooby_state_403bfc|24|1 315,0,0,0,0,0,0,0,0,0,0,0,0,0,0,315,
scooby_state_403bf7|24|1 315,0,0,0,0,0,0,0,0,0,0,0,0,0,0,315,
scooby_state_403bf7|63|1 312,0,0,0,0,0,0,0,0,0,0,0,0,0,0,312,
scooby_state_403bfc|57|1 312,0,0,0,0,0,0,0,0,0,0,0,0,0,0,312,
scooby_state_403bf7|57|1 312,0,0,0,0,0,0,0,0,0,0,0,0,0,0,312,
scooby_state_403bfc|63|1 312,0,0,0,0,0,0,0,0,0,0,0,0,0,0,312,
scooby_state_41c9ff|28|1 309,0,0,0,0,0,0,0,1,0,0,0,0,0,0,310,
scooby_state_41c9ff|14|1 310,0,0,0,0,0,0,0,0,0,0,0,0,0,0,310,
scooby_state_41c9ff|27|1 308,0,0,0,0,0,0,0,0,1,1,0,0,0,0,310,
scooby_state_41c9ff|15|1 307,0,0,0,1,0,1,0,0,0,0,0,1,0,0,310,
scooby_state_41c9ff|24|1 308,0,0,1,0,0,0,0,0,0,0,0,0,0,0,309,
scooby_state_41c9ff|26|1 308,0,0,0,0,0,0,0,0,0,0,0,1,0,0,309,
scooby_state_41c9ff|29|1 309,0,0,0,0,0,0,0,0,0,0,0,0,0,0,309,
scooby_state_41c9ff|54|1 309,0,0,0,0,0,0,0,0,0,0,0,0,0,0,309,
scooby_state_41c9ff|22|1 309,0,0,0,0,0,0,0,0,0,0,0,0,0,0,309,
scooby_state_41c9ff|55|1 308,0,0,0,0,0,0,0,0,0,0,0,0,0,0,308,
scooby_state_41c9ff|56|1 308,0,0,0,0,0,0,0,0,0,0,0,0,0,0,308,
scooby_state_41c9ff|58|1 307,0,0,0,0,0,0,0,0,0,0,0,0,1,0,308,
scooby_state_403bfc|58|1 308,0,0,0,0,0,0,0,0,0,0,0,0,0,0,308,
scooby_state_403bf7|55|1 308,0,0,0,0,0,0,0,0,0,0,0,0,0,0,308,
scooby_state_403bfc|55|1 306,0,0,0,0,0,0,1,0,0,0,0,0,1,0,308,
scooby_state_41c9ff|2|1 308,0,0,0,0,0,0,0,0,0,0,0,0,0,0,308,
scooby_state_41c9ff|6|1 308,0,0,0,0,0,0,0,0,0,0,0,0,0,0,308,
scooby_state_41c9ff|23|1 306,1,0,0,0,1,0,0,0,0,0,0,0,0,0,308,
scooby_state_41c9ff|61|1 308,0,0,0,0,0,0,0,0,0,0,0,0,0,0,308,
scooby_state_41c9ff|5|1 308,0,0,0,0,0,0,0,0,0,0,0,0,0,0,308,
scooby_state_41c9ff|47|1 307,0,0,0,0,0,0,0,0,0,0,0,0,1,0,308,
scooby_state_403bf7|58|1 308,0,0,0,0,0,0,0,0,0,0,0,0,0,0,308,
scooby_state_41c9ff|60|1 307,0,0,1,0,0,0,0,0,0,0,0,0,0,0,308,
scooby_state_41c9ff|46|1 306,0,1,0,0,0,0,0,0,0,0,0,0,1,0,308,
scooby_state_41c9ff|57|1 308,0,0,0,0,0,0,0,0,0,0,0,0,0,0,308,
scooby_state_41c9ff|25|1 307,0,0,0,0,0,0,0,0,0,1,0,0,0,0,308,
scooby_state_41c9ff|3|1 308,0,0,0,0,0,0,0,0,0,0,0,0,0,0,308,
scooby_state_41c9ff|59|1 308,0,0,0,0,0,0,0,0,0,0,0,0,0,0,308,
scooby_state_41c9ff|34|1 308,0,0,0,0,0,0,0,0,0,0,0,0,0,0,308,
scooby_state_41c9ff|35|1 307,0,0,0,0,0,0,0,0,0,0,0,0,0,1,308,
scooby_state_41c9ff|51|1 306,0,0,0,1,0,0,0,0,0,0,0,0,0,0,307,
scooby_state_41c9ff|37|1 307,0,0,0,0,0,0,0,0,0,0,0,0,0,0,307,
scooby_state_41c9ff|36|1 305,0,0,0,0,0,0,0,0,1,1,0,0,0,0,307,
scooby_state_41c9ff|4|1 307,0,0,0,0,0,0,0,0,0,0,0,0,0,0,307,
scooby_state_41c9ff|18|1 306,0,0,0,0,0,0,0,0,0,0,0,0,1,0,307,
scooby_state_41c9ff|62|1 306,0,0,1,0,0,0,0,0,0,0,0,0,0,0,307,
scooby_state_41c9ff|38|1 306,0,0,0,0,0,0,0,0,0,1,0,0,0,0,307,
scooby_state_41c9ff|30|1 306,0,0,0,0,0,0,0,1,0,0,0,0,0,0,307,
scooby_state_41c9ff|21|1 307,0,0,0,0,0,0,0,0,0,0,0,0,0,0,307,
scooby_state_41c9ff|19|1 306,1,0,0,0,0,0,0,0,0,0,0,0,0,0,307,
scooby_state_41c9ff|53|1 307,0,0,0,0,0,0,0,0,0,0,0,0,0,0,307,
scooby_state_41c9ff|16|1 306,0,0,0,0,1,0,0,0,0,0,0,0,0,0,307,
scooby_state_41c9ff|42|1 306,0,0,0,0,0,0,0,0,0,0,0,0,0,0,306,
scooby_state_403bfc|60|1 306,0,0,0,0,0,0,0,0,0,0,0,0,0,0,306,
scooby_state_41c9ff|48|1 305,0,0,0,0,0,0,0,1,0,0,0,0,0,0,306,
scooby_state_403bf7|60|1 306,0,0,0,0,0,0,0,0,0,0,0,0,0,0,306,
scooby_state_41c9ff|13|1 305,0,0,0,0,0,0,0,0,1,0,0,0,0,0,306,
scooby_state_41c9ff|10|1 306,0,0,0,0,0,0,0,0,0,0,0,0,0,0,306,
scooby_state_41c9ff|50|1 306,0,0,0,0,0,0,0,0,0,0,0,0,0,0,306,
scooby_state_41c9ff|44|1 305,0,0,0,0,0,0,0,0,0,0,0,0,0,0,305,
scooby_state_41c9ff|11|1 304,0,0,0,0,0,0,0,0,0,0,0,0,1,0,305,
scooby_state_41c9ff|52|1 305,0,0,0,0,0,0,0,0,0,0,0,0,0,0,305,
scooby_state_41c9ff|43|1 305,0,0,0,0,0,0,0,0,0,0,0,0,0,0,305,
scooby_state_41c9ff|39|1 305,0,0,0,0,0,0,0,0,0,0,0,0,0,0,305,
scooby_state_41c9ff|20|1 304,1,0,0,0,0,0,0,0,0,0,0,0,0,0,305,
scooby_state_41c9ff|12|1 304,0,0,0,1,0,0,0,0,0,0,0,0,0,0,305,
scooby_state_41c9ff|7|1 304,0,0,0,0,0,0,0,0,0,0,0,0,0,0,304,
scooby_state_403bfc|29|1 304,0,0,0,0,0,0,0,0,0,0,0,0,0,0,304,
scooby_state_403bf7|59|1 302,0,0,0,0,1,0,0,0,1,0,0,0,0,0,304,
scooby_state_403bf7|29|1 303,0,0,0,0,0,0,0,0,0,1,0,0,0,0,304,
scooby_state_403bfc|59|1 304,0,0,0,0,0,0,0,0,0,0,0,0,0,0,304,
scooby_state_41c9ff|45|1 302,0,0,0,1,1,0,0,0,0,0,0,0,0,0,304,
scooby_state_41c9ff|17|1 303,0,0,0,0,0,0,0,0,0,0,0,0,0,0,303,
scooby_state_403bf7|30|1 302,0,0,0,1,0,0,0,0,0,0,0,0,0,0,303,
scooby_state_403bfc|61|1 303,0,0,0,0,0,0,0,0,0,0,0,0,0,0,303,
scooby_state_41c9ff|9|1 300,0,0,0,0,0,0,1,0,1,0,1,0,0,0,303,
scooby_state_41c9ff|49|1 303,0,0,0,0,0,0,0,0,0,0,0,0,0,0,303,
scooby_state_41c9ff|63|1 303,0,0,0,0,0,0,0,0,0,0,0,0,0,0,303,
scooby_state_41c9ff|8|1 303,0,0,0,0,0,0,0,0,0,0,0,0,0,0,303,
scooby_state_41c9ff|40|1 301,0,1,1,0,0,0,0,0,0,0,0,0,0,0,303,
scooby_state_403bfc|32|1 302,0,0,1,0,0,0,0,0,0,0,0,0,0,0,303,
scooby_state_403bf7|32|1 301,0,1,0,1,0,0,0,0,0,0,0,0,0,0,303,
scooby_state_41c9ff|41|1 303,0,0,0,0,0,0,0,0,0,0,0,0,0,0,303,
scooby_state_403bfc|30|1 303,0,0,0,0,0,0,0,0,0,0,0,0,0,0,303,
scooby_state_403bf7|61|1 303,0,0,0,0,0,0,0,0,0,0,0,0,0,0,303,
scooby_state_403bf7|51|1 302,0,0,0,0,0,0,0,0,0,0,0,0,0,0,302,
scooby_state_41c9ff|31|1 300,0,0,2,0,0,0,0,0,0,0,0,0,0,0,302,
scooby_state_403bfc|51|1 302,0,0,0,0,0,0,0,0,0,0,0,0,0,0,302,
scooby_state_403bfc|52|1 300,0,0,0,0,0,0,0,0,0,0,0,1,0,0,301,
scooby_state_403bf7|52|1 301,0,0,0,0,0,0,0,0,0,0,0,0,0,0,301,
scooby_state_403bf7|62|1 300,0,0,0,0,0,0,0,0,0,0,0,0,0,1,301,
scooby_state_403bfc|62|1 301,0,0,0,0,0,0,0,0,0,0,0,0,0,0,301,
scooby_state_41c9ff|1|1 301,0,0,0,0,0,0,0,0,0,0,0,0,0,0,301,
scooby_state_41c9ff|33|1 300,0,0,0,0,0,0,0,0,0,0,0,0,0,0,300,
scooby_state_41c9ff|0|0 298,1,0,0,0,0,0,0,0,0,0,0,0,0,0,299,
scooby_state_41c9ff|32|1 298,0,0,0,0,0,0,0,0,0,0,0,0,0,0,298,
scooby_state_403bfc|34|1 298,0,0,0,0,0,0,0,0,0,0,0,0,0,0,298,
scooby_state_403bf7|34|1 297,1,0,0,0,0,0,0,0,0,0,0,0,0,0,298,
scooby_state_403bfc|54|1 296,0,0,0,0,0,0,0,0,0,0,0,0,0,1,297,
scooby_state_403bf7|54|1 297,0,0,0,0,0,0,0,0,0,0,0,0,0,0,297,
scooby_state_403bfc|33|1 297,0,0,0,0,0,0,0,0,0,0,0,0,0,0,297,
scooby_state_403bfc|50|1 297,0,0,0,0,0,0,0,0,0,0,0,0,0,0,297,
scooby_state_403bf7|33|1 297,0,0,0,0,0,0,0,0,0,0,0,0,0,0,297,
scooby_state_403bf7|50|1 296,0,0,0,0,0,0,1,0,0,0,0,0,0,0,297,
scooby_state_403bf7|31|1 295,0,0,0,0,0,0,0,0,0,0,0,0,0,0,295,
scooby_state_403bfc|31|1 294,0,0,0,0,0,0,0,0,1,0,0,0,0,0,295,
scooby_state_403bf7|49|1 292,0,0,0,0,0,0,0,0,0,0,0,0,0,0,292,
scooby_state_403bf7|42|1 291,0,1,0,0,0,0,0,0,0,0,0,0,0,0,292,
scooby_state_403bfc|49|1 292,0,0,0,0,0,0,0,0,0,0,0,0,0,0,292,
scooby_state_403bfc|42|1 292,0,0,0,0,0,0,0,0,0,0,0,0,0,0,292,
scooby_state_403bfc|41|1 290,0,0,0,0,0,0,0,0,0,0,0,0,0,0,290,
scooby_state_403bf7|41|1 289,0,0,0,0,0,0,0,0,0,0,0,0,0,1,290,
scooby_state_403bf7|35|1 289,0,0,0,0,0,0,0,0,0,0,0,0,0,0,289,
scooby_state_403bfc|43|1 288,0,0,0,1,0,0,0,0,0,0,0,0,0,0,289,
scooby_state_403bf7|43|1 289,0,0,0,0,0,0,0,0,0,0,0,0,0,0,289,
scooby_state_403bfc|35|1 289,0,0,0,0,0,0,0,0,0,0,0,0,0,0,289,
scooby_state_403bf7|38|1 287,0,0,0,0,0,0,0,0,0,0,0,0,0,1,288,
scooby_state_403bfc|38|1 287,0,0,0,0,0,0,0,1,0,0,0,0,0,0,288,
scooby_state_403bfc|53|1 287,0,0,0,0,0,0,0,0,0,0,0,0,0,0,287,
scooby_state_403bfc|37|1 287,0,0,0,0,0,0,0,0,0,0,0,0,0,0,287,
scooby_state_403bf7|53|1 287,0,0,0,0,0,0,0,0,0,0,0,0,0,0,287,
scooby_state_403bf7|37|1 287,0,0,0,0,0,0,0,0,0,0,0,0,0,0,287,
scooby_state_403bf7|47|1 285,0,0,0,0,0,0,0,0,0,0,0,0,1,0,286,
scooby_state_403bf7|46|1 285,1,0,0,0,0,0,0,0,0,0,0,0,0,0,286,
scooby_state_403bfc|46|1 286,0,0,0,0,0,0,0,0,0,0,0,0,0,0,286,
scooby_state_403bf7|40|1 284,0,0,1,0,1,0,0,0,0,0,0,0,0,0,286,
scooby_state_403bfc|47|1 286,0,0,0,0,0,0,0,0,0,0,0,0,0,0,286,
scooby_state_403bfc|40|1 286,0,0,0,0,0,0,0,0,0,0,0,0,0,0,286,
scooby_state_403bfc|48|1 284,0,0,0,0,0,0,0,0,0,0,0,0,0,0,284,
scooby_state_403bf7|48|1 284,0,0,0,0,0,0,0,0,0,0,0,0,0,0,284,
scooby_state_403bfc|39|1 281,0,0,0,0,0,0,0,0,0,0,0,0,0,0,281,
scooby_state_403bf7|39|1 280,0,1,0,0,0,0,0,0,0,0,0,0,0,0,281,
scooby_state_403bf7|44|1 278,0,0,0,0,0,0,0,0,0,0,0,0,0,0,278,
scooby_state_403bfc|44|1 278,0,0,0,0,0,0,0,0,0,0,0,0,0,0,278,
scooby_state_403bf7|36|1 277,0,0,0,0,0,0,0,0,0,0,0,0,0,0,277,
scooby_state_403bfc|36|1 277,0,0,0,0,0,0,0,0,0,0,0,0,0,0,277,
scooby_state_403bf7|45|1 272,0,0,0,0,0,0,0,0,0,0,0,0,0,0,272,
scooby_state_403bfc|45|1 271,0,0,0,0,0,0,0,0,1,0,0,0,0,0,272,
scooby_state_414cf0|27|1 64,0,0,0,0,0,0,0,0,0,0,0,0,0,0,64,
scooby_state_414cf0|39|1 64,0,0,0,0,0,0,0,0,0,0,0,0,0,0,64,
scooby_state_414cf0|36|1 64,0,0,0,0,0,0,0,0,0,0,0,0,0,0,64,
scooby_state_414cf0|38|1 64,0,0,0,0,0,0,0,0,0,0,0,0,0,0,64,
scooby_state_414cf0|61|1 63,0,0,0,0,0,0,0,0,0,0,1,0,0,0,64,
scooby_state_414cf0|35|1 64,0,0,0,0,0,0,0,0,0,0,0,0,0,0,64,
scooby_state_414cf0|5|1 64,0,0,0,0,0,0,0,0,0,0,0,0,0,0,64,
scooby_state_414cf0|7|1 64,0,0,0,0,0,0,0,0,0,0,0,0,0,0,64,
scooby_state_414cf0|32|1 64,0,0,0,0,0,0,0,0,0,0,0,0,0,0,64,
scooby_state_414cf0|30|1 64,0,0,0,0,0,0,0,0,0,0,0,0,0,0,64,
scooby_state_414cf0|10|1 64,0,0,0,0,0,0,0,0,0,0,0,0,0,0,64,
scooby_state_414cf0|34|1 64,0,0,0,0,0,0,0,0,0,0,0,0,0,0,64,
scooby_state_414cf0|49|1 64,0,0,0,0,0,0,0,0,0,0,0,0,0,0,64,
scooby_state_414cf0|28|1 64,0,0,0,0,0,0,0,0,0,0,0,0,0,0,64,
scooby_state_414cf0|48|1 64,0,0,0,0,0,0,0,0,0,0,0,0,0,0,64,
scooby_state_414cf0|29|1 64,0,0,0,0,0,0,0,0,0,0,0,0,0,0,64,
scooby_state_414cf0|26|1 63,0,0,0,0,0,1,0,0,0,0,0,0,0,0,64,
scooby_state_414cf0|13|1 64,0,0,0,0,0,0,0,0,0,0,0,0,0,0,64,
scooby_state_414cf0|14|1 64,0,0,0,0,0,0,0,0,0,0,0,0,0,0,64,
scooby_state_414cf0|25|1 64,0,0,0,0,0,0,0,0,0,0,0,0,0,0,64,
scooby_state_414cf0|2|1 64,0,0,0,0,0,0,0,0,0,0,0,0,0,0,64,
scooby_state_414cf0|15|1 64,0,0,0,0,0,0,0,0,0,0,0,0,0,0,64,
scooby_state_414cf0|16|1 64,0,0,0,0,0,0,0,0,0,0,0,0,0,0,64,
scooby_state_414cf0|56|1 64,0,0,0,0,0,0,0,0,0,0,0,0,0,0,64,
scooby_state_414cf0|3|1 64,0,0,0,0,0,0,0,0,0,0,0,0,0,0,64,
scooby_state_414cf0|59|1 64,0,0,0,0,0,0,0,0,0,0,0,0,0,0,64,
scooby_state_414cf0|8|1 64,0,0,0,0,0,0,0,0,0,0,0,0,0,0,64,
scooby_state_414cf0|9|1 64,0,0,0,0,0,0,0,0,0,0,0,0,0,0,64,
scooby_state_414cf0|0|0 63,0,0,0,1,0,0,0,0,0,0,0,0,0,0,64,
scooby_state_414cf0|31|1 64,0,0,0,0,0,0,0,0,0,0,0,0,0,0,64,
scooby_state_414cf0|45|1 64,0,0,0,0,0,0,0,0,0,0,0,0,0,0,64,
scooby_state_414cf0|55|1 64,0,0,0,0,0,0,0,0,0,0,0,0,0,0,64,
scooby_state_414cf0|54|1 64,0,0,0,0,0,0,0,0,0,0,0,0,0,0,64,
scooby_state_414cf0|37|1 64,0,0,0,0,0,0,0,0,0,0,0,0,0,0,64,
scooby_state_414cf0|53|1 64,0,0,0,0,0,0,0,0,0,0,0,0,0,0,64,
scooby_state_414cf0|57|1 64,0,0,0,0,0,0,0,0,0,0,0,0,0,0,64,
scooby_state_414cf0|52|1 64,0,0,0,0,0,0,0,0,0,0,0,0,0,0,64,
scooby_state_414cf0|50|1 64,0,0,0,0,0,0,0,0,0,0,0,0,0,0,64,
scooby_state_414cf0|12|1 64,0,0,0,0,0,0,0,0,0,0,0,0,0,0,64,
scooby_state_414cf0|33|1 64,0,0,0,0,0,0,0,0,0,0,0,0,0,0,64,
scooby_state_414cf0|6|1 64,0,0,0,0,0,0,0,0,0,0,0,0,0,0,64,
scooby_state_414cf0|58|1 64,0,0,0,0,0,0,0,0,0,0,0,0,0,0,64,
scooby_state_414cf0|60|1 64,0,0,0,0,0,0,0,0,0,0,0,0,0,0,64,
scooby_state_414cf0|11|1 63,0,0,0,0,0,1,0,0,0,0,0,0,0,0,64,
scooby_state_414cf0|44|1 64,0,0,0,0,0,0,0,0,0,0,0,0,0,0,64,
scooby_state_414cf0|42|1 63,0,0,0,0,0,0,0,1,0,0,0,0,0,0,64,
scooby_state_414cf0|4|1 63,0,0,0,0,0,0,0,1,0,0,0,0,0,0,64,
scooby_state_414cf0|43|1 64,0,0,0,0,0,0,0,0,0,0,0,0,0,0,64,
scooby_state_414cf0|63|1 64,0,0,0,0,0,0,0,0,0,0,0,0,0,0,64,
scooby_state_414cf0|41|1 64,0,0,0,0,0,0,0,0,0,0,0,0,0,0,64,
scooby_state_414cf0|51|1 64,0,0,0,0,0,0,0,0,0,0,0,0,0,0,64,
scooby_state_414cf0|1|1 64,0,0,0,0,0,0,0,0,0,0,0,0,0,0,64,
scooby_state_414cf0|62|1 64,0,0,0,0,0,0,0,0,0,0,0,0,0,0,64,
scooby_state_414cf0|40|1 64,0,0,0,0,0,0,0,0,0,0,0,0,0,0,64,
scooby_state_414cf0|17|1 62,0,0,0,0,0,0,0,0,0,0,0,0,0,0,62,
scooby_state_414cf0|47|1 62,0,0,0,0,0,0,0,0,0,0,0,0,0,0,62,
scooby_state_414cf0|18|1 62,0,0,0,0,0,0,0,0,0,0,0,0,0,0,62,
scooby_state_414cf0|46|1 62,0,0,0,0,0,0,0,0,0,0,0,0,0,0,62,
scooby_state_414cf0|24|1 62,0,0,0,0,0,0,0,0,0,0,0,0,0,0,62,
scooby_state_414cf0|19|1 62,0,0,0,0,0,0,0,0,0,0,0,0,0,0,62,
scooby_state_414cf0|23|1 62,0,0,0,0,0,0,0,0,0,0,0,0,0,0,62,
scooby_state_414cf0|22|1 62,0,0,0,0,0,0,0,0,0,0,0,0,0,0,62,
scooby_state_414cf0|20|1 61,0,0,0,0,0,0,0,0,0,0,0,1,0,0,62,
scooby_state_414cf0|21|1 62,0,0,0,0,0,0,0,0,0,0,0,0,0,0,62,
scooby_state_403ce7|0|0 58,0,0,0,0,0,0,0,0,0,0,0,0,0,0,58,
scooby_state_403d10|0|0 58,0,0,0,0,0,0,0,0,0,0,0,0,0,0,58,
scooby_state_41c997|50|1 52,0,0,0,0,0,0,0,0,0,0,0,0,0,0,52,
scooby_state_41c9a3|41|1 52,0,0,0,0,0,0,0,0,0,0,0,0,0,0,52,
scooby_state_41c9a3|46|1 52,0,0,0,0,0,0,0,0,0,0,0,0,0,0,52,
scooby_state_41c9a3|50|1 52,0,0,0,0,0,0,0,0,0,0,0,0,0,0,52,
scooby_state_41c997|44|1 52,0,0,0,0,0,0,0,0,0,0,0,0,0,0,52,
scooby_state_41c9a3|51|1 52,0,0,0,0,0,0,0,0,0,0,0,0,0,0,52,
scooby_state_41c9a3|52|1 52,0,0,0,0,0,0,0,0,0,0,0,0,0,0,52,
scooby_state_41c997|41|1 52,0,0,0,0,0,0,0,0,0,0,0,0,0,0,52,
scooby_state_41c997|49|1 52,0,0,0,0,0,0,0,0,0,0,0,0,0,0,52,
scooby_state_41c9a3|31|1 52,0,0,0,0,0,0,0,0,0,0,0,0,0,0,52,
scooby_state_41c997|47|1 52,0,0,0,0,0,0,0,0,0,0,0,0,0,0,52,
scooby_state_41c9a3|30|1 52,0,0,0,0,0,0,0,0,0,0,0,0,0,0,52,
scooby_state_41c997|42|1 52,0,0,0,0,0,0,0,0,0,0,0,0,0,0,52,
scooby_state_41c997|53|1 52,0,0,0,0,0,0,0,0,0,0,0,0,0,0,52,
scooby_state_41c9a3|47|1 51,0,0,0,0,0,0,0,0,0,0,0,0,0,1,52,
scooby_state_41c9a3|55|1 52,0,0,0,0,0,0,0,0,0,0,0,0,0,0,52,
scooby_state_41c997|34|1 52,0,0,0,0,0,0,0,0,0,0,0,0,0,0,52,
scooby_state_41c9a3|53|1 52,0,0,0,0,0,0,0,0,0,0,0,0,0,0,52,
scooby_state_41c9a3|29|1 51,0,0,0,0,0,0,1,0,0,0,0,0,0,0,52,
scooby_state_41c9a3|38|1 52,0,0,0,0,0,0,0,0,0,0,0,0,0,0,52,
scooby_state_41c9a3|54|1 52,0,0,0,0,0,0,0,0,0,0,0,0,0,0,52,
scooby_state_41c9a3|44|1 52,0,0,0,0,0,0,0,0,0,0,0,0,0,0,52,
scooby_state_41c997|27|1 52,0,0,0,0,0,0,0,0,0,0,0,0,0,0,52,
scooby_state_41c9a3|36|1 52,0,0,0,0,0,0,0,0,0,0,0,0,0,0,52,
scooby_state_41c9a3|35|1 52,0,0,0,0,0,0,0,0,0,0,0,0,0,0,52,
scooby_state_41c9a3|32|1 52,0,0,0,0,0,0,0,0,0,0,0,0,0,0,52,
scooby_state_41c9a3|43|1 52,0,0,0,0,0,0,0,0,0,0,0,0,0,0,52,
scooby_state_41c9a3|45|1 52,0,0,0,0,0,0,0,0,0,0,0,0,0,0,52,
scooby_state_41c997|33|1 52,0,0,0,0,0,0,0,0,0,0,0,0,0,0,52,
scooby_state_41c997|37|1 52,0,0,0,0,0,0,0,0,0,0,0,0,0,0,52,
scooby_state_41c997|29|1 52,0,0,0,0,0,0,0,0,0,0,0,0,0,0,52,
scooby_state_41c997|30|1 52,0,0,0,0,0,0,0,0,0,0,0,0,0,0,52,
scooby_state_41c9a3|28|1 52,0,0,0,0,0,0,0,0,0,0,0,0,0,0,52,
scooby_state_41c997|40|1 52,0,0,0,0,0,0,0,0,0,0,0,0,0,0,52,
scooby_state_41c9a3|39|1 52,0,0,0,0,0,0,0,0,0,0,0,0,0,0,52,
scooby_state_41c9a3|34|1 52,0,0,0,0,0,0,0,0,0,0,0,0,0,0,52,
scooby_state_41c9a3|42|1 52,0,0,0,0,0,0,0,0,0,0,0,0,0,0,52,
scooby_state_41c9a3|48|1 52,0,0,0,0,0,0,0,0,0,0,0,0,0,0,52,
scooby_state_41c997|39|1 52,0,0,0,0,0,0,0,0,0,0,0,0,0,0,52,
scooby_state_41c997|46|1 52,0,0,0,0,0,0,0,0,0,0,0,0,0,0,52,
scooby_state_41c997|43|1 52,0,0,0,0,0,0,0,0,0,0,0,0,0,0,52,
scooby_state_41c997|31|1 52,0,0,0,0,0,0,0,0,0,0,0,0,0,0,52,
scooby_state_41c997|35|1 52,0,0,0,0,0,0,0,0,0,0,0,0,0,0,52,
scooby_state_41c9a3|33|1 52,0,0,0,0,0,0,0,0,0,0,0,0,0,0,52,
scooby_state_41c997|45|1 52,0,0,0,0,0,0,0,0,0,0,0,0,0,0,52,
scooby_state_41c9a3|49|1 52,0,0,0,0,0,0,0,0,0,0,0,0,0,0,52,
scooby_state_41c997|48|1 52,0,0,0,0,0,0,0,0,0,0,0,0,0,0,52,
scooby_state_41c997|52|1 52,0,0,0,0,0,0,0,0,0,0,0,0,0,0,52,
scooby_state_41c997|32|1 51,0,0,0,0,0,0,0,1,0,0,0,0,0,0,52,
scooby_state_41c997|51|1 52,0,0,0,0,0,0,0,0,0,0,0,0,0,0,52,
scooby_state_41c997|28|1 52,0,0,0,0,0,0,0,0,0,0,0,0,0,0,52,
scooby_state_41c997|55|1 52,0,0,0,0,0,0,0,0,0,0,0,0,0,0,52,
scooby_state_41c997|54|1 52,0,0,0,0,0,0,0,0,0,0,0,0,0,0,52,
scooby_state_41c9a3|40|1 52,0,0,0,0,0,0,0,0,0,0,0,0,0,0,52,
scooby_state_41c997|0|0 51,0,0,0,0,0,0,0,0,0,0,0,0,0,0,51,
scooby_state_41c9a3|58|1 51,0,0,0,0,0,0,0,0,0,0,0,0,0,0,51,
scooby_state_41c997|9|1 50,0,1,0,0,0,0,0,0,0,0,0,0,0,0,51,
scooby_state_41c9a3|57|1 51,0,0,0,0,0,0,0,0,0,0,0,0,0,0,51,
scooby_state_41c9a3|7|1 51,0,0,0,0,0,0,0,0,0,0,0,0,0,0,51,
scooby_state_41c9a3|11|1 51,0,0,0,0,0,0,0,0,0,0,0,0,0,0,51,
scooby_state_41c9a3|59|1 50,0,0,0,0,0,0,0,1,0,0,0,0,0,0,51,
scooby_state_41c9a3|62|1 51,0,0,0,0,0,0,0,0,0,0,0,0,0,0,51,
scooby_state_41c997|13|1 51,0,0,0,0,0,0,0,0,0,0,0,0,0,0,51,
scooby_state_41c997|7|1 51,0,0,0,0,0,0,0,0,0,0,0,0,0,0,51,
scooby_state_41c9a3|3|1 51,0,0,0,0,0,0,0,0,0,0,0,0,0,0,51,
scooby_state_41c9a3|5|1 51,0,0,0,0,0,0,0,0,0,0,0,0,0,0,51,
scooby_state_41c997|20|1 51,0,0,0,0,0,0,0,0,0,0,0,0,0,0,51,
scooby_state_41c9a3|60|1 51,0,0,0,0,0,0,0,0,0,0,0,0,0,0,51,
scooby_state_41c997|25|1 51,0,0,0,0,0,0,0,0,0,0,0,0,0,0,51,
scooby_state_41c997|5|1 51,0,0,0,0,0,0,0,0,0,0,0,0,0,0,51,
scooby_state_41c9a3|22|1 51,0,0,0,0,0,0,0,0,0,0,0,0,0,0,51,
scooby_state_41c9a3|16|1 51,0,0,0,0,0,0,0,0,0,0,0,0,0,0,51,
scooby_state_41c997|16|1 50,0,0,0,0,1,0,0,0,0,0,0,0,0,0,51,
scooby_state_41c9a3|21|1 51,0,0,0,0,0,0,0,0,0,0,0,0,0,0,51,
scooby_state_41c997|58|1 51,0,0,0,0,0,0,0,0,0,0,0,0,0,0,51,
scooby_state_41c997|59|1 51,0,0,0,0,0,0,0,0,0,0,0,0,0,0,51,
scooby_state_41c997|17|1 51,0,0,0,0,0,0,0,0,0,0,0,0,0,0,51,
scooby_state_41c9a3|56|1 51,0,0,0,0,0,0,0,0,0,0,0,0,0,0,51,
scooby_state_41c9a3|23|1 51,0,0,0,0,0,0,0,0,0,0,0,0,0,0,51,
scooby_state_41c9a3|12|1 51,0,0,0,0,0,0,0,0,0,0,0,0,0,0,51,
scooby_state_41c9a3|1|1 51,0,0,0,0,0,0,0,0,0,0,0,0,0,0,51,
scooby_state_41c9a3|24|1 51,0,0,0,0,0,0,0,0,0,0,0,0,0,0,51,
scooby_state_41c997|19|1 51,0,0,0,0,0,0,0,0,0,0,0,0,0,0,51,
scooby_state_41c9a3|8|1 51,0,0,0,0,0,0,0,0,0,0,0,0,0,0,51,
scooby_state_41c997|8|1 51,0,0,0,0,0,0,0,0,0,0,0,0,0,0,51,
scooby_state_41c997|57|1 50,0,0,0,0,1,0,0,0,0,0,0,0,0,0,51,
scooby_state_41c9a3|63|1 50,0,0,0,0,0,0,0,0,0,0,0,0,1,0,51,
scooby_state_41c997|63|1 51,0,0,0,0,0,0,0,0,0,0,0,0,0,0,51,
scooby_state_41c997|24|1 51,0,0,0,0,0,0,0,0,0,0,0,0,0,0,51,
scooby_state_41c9a3|10|1 51,0,0,0,0,0,0,0,0,0,0,0,0,0,0,51,
scooby_state_41c9a3|37|1 51,0,0,0,0,0,0,0,0,0,0,0,0,0,0,51,
scooby_state_41c9a3|13|1 51,0,0,0,0,0,0,0,0,0,0,0,0,0,0,51,
scooby_state_41c997|4|1 51,0,0,0,0,0,0,0,0,0,0,0,0,0,0,51,
scooby_state_41c9a3|17|1 51,0,0,0,0,0,0,0,0,0,0,0,0,0,0,51,
scooby_state_41c9a3|18|1 51,0,0,0,0,0,0,0,0,0,0,0,0,0,0,51,
scooby_state_41c9a3|9|1 51,0,0,0,0,0,0,0,0,0,0,0,0,0,0,51,
scooby_state_41c997|23|1 51,0,0,0,0,0,0,0,0,0,0,0,0,0,0,51,
scooby_state_41c997|11|1 51,0,0,0,0,0,0,0,0,0,0,0,0,0,0,51,
scooby_state_41c997|12|1 50,0,0,0,0,0,1,0,0,0,0,0,0,0,0,51,
scooby_state_41c997|3|1 51,0,0,0,0,0,0,0,0,0,0,0,0,0,0,51,
scooby_state_41c997|22|1 51,0,0,0,0,0,0,0,0,0,0,0,0,0,0,51,
scooby_state_41c997|14|1 51,0,0,0,0,0,0,0,0,0,0,0,0,0,0,51,
scooby_state_41c997|2|1 51,0,0,0,0,0,0,0,0,0,0,0,0,0,0,51,
scooby_state_41c9a3|0|0 51,0,0,0,0,0,0,0,0,0,0,0,0,0,0,51,
scooby_state_41c997|15|1 51,0,0,0,0,0,0,0,0,0,0,0,0,0,0,51,
scooby_state_41c997|26|1 51,0,0,0,0,0,0,0,0,0,0,0,0,0,0,51,
scooby_state_41c9a3|15|1 51,0,0,0,0,0,0,0,0,0,0,0,0,0,0,51,
scooby_state_41c997|10|1 51,0,0,0,0,0,0,0,0,0,0,0,0,0,0,51,
scooby_state_41c997|62|1 51,0,0,0,0,0,0,0,0,0,0,0,0,0,0,51,
scooby_state_41c997|18|1 51,0,0,0,0,0,0,0,0,0,0,0,0,0,0,51,
scooby_state_41c997|6|1 51,0,0,0,0,0,0,0,0,0,0,0,0,0,0,51,
scooby_state_41c997|36|1 51,0,0,0,0,0,0,0,0,0,0,0,0,0,0,51,
scooby_state_41c9a3|2|1 51,0,0,0,0,0,0,0,0,0,0,0,0,0,0,51,
scooby_state_41c9a3|20|1 51,0,0,0,0,0,0,0,0,0,0,0,0,0,0,51,
scooby_state_41c997|21|1 51,0,0,0,0,0,0,0,0,0,0,0,0,0,0,51,
scooby_state_41c9a3|4|1 50,0,0,0,0,0,0,1,0,0,0,0,0,0,0,51,
scooby_state_41c9a3|27|1 51,0,0,0,0,0,0,0,0,0,0,0,0,0,0,51,
scooby_state_41c997|56|1 51,0,0,0,0,0,0,0,0,0,0,0,0,0,0,51,
scooby_state_41c997|60|1 50,0,0,0,0,0,0,0,0,0,0,0,0,0,1,51,
scooby_state_41c9a3|14|1 51,0,0,0,0,0,0,0,0,0,0,0,0,0,0,51,
scooby_state_41c9a3|6|1 51,0,0,0,0,0,0,0,0,0,0,0,0,0,0,51,
scooby_state_41c997|61|1 51,0,0,0,0,0,0,0,0,0,0,0,0,0,0,51,
scooby_state_41c9a3|61|1 51,0,0,0,0,0,0,0,0,0,0,0,0,0,0,51,
scooby_state_41c9a3|26|1 51,0,0,0,0,0,0,0,0,0,0,0,0,0,0,51,
scooby_state_41c9a3|19|1 51,0,0,0,0,0,0,0,0,0,0,0,0,0,0,51,
scooby_state_41c997|1|1 51,0,0,0,0,0,0,0,0,0,0,0,0,0,0,51,
scooby_state_41c9a3|25|1 51,0,0,0,0,0,0,0,0,0,0,0,0,0,0,51,
scooby_state_41c997|38|1 50,0,0,0,0,0,0,0,0,0,0,0,0,0,0,50,
scooby_state_403ce7|1|1 42,0,0,0,0,0,0,0,0,0,0,0,0,0,0,42,
scooby_state_403d10|2|1 42,0,0,0,0,0,0,0,0,0,0,0,0,0,0,42,
scooby_state_403ce7|2|1 42,0,0,0,0,0,0,0,0,0,0,0,0,0,0,42,
scooby_state_403d10|1|1 42,0,0,0,0,0,0,0,0,0,0,0,0,0,0,42,
scooby_state_403ce7|31|3 37,0,0,0,0,0,0,0,0,0,0,0,0,0,0,37,
scooby_state_403ce7|27|3 36,0,0,0,0,0,0,0,0,0,0,0,0,0,0,36,
scooby_state_403ce7|41|3 36,0,0,0,0,0,0,0,0,0,0,0,0,0,0,36,
scooby_state_403ce7|36|3 36,0,0,0,0,0,0,0,0,0,0,0,0,0,0,36,
scooby_state_41c9ce|32|1 36,0,0,0,0,0,0,0,0,0,0,0,0,0,0,36,
scooby_state_403ce7|3|3 36,0,0,0,0,0,0,0,0,0,0,0,0,0,0,36,
scooby_state_403ce7|26|3 36,0,0,0,0,0,0,0,0,0,0,0,0,0,0,36,
scooby_state_41c9ce|0|0 35,0,0,0,0,0,0,0,0,0,0,0,0,0,0,35,
scooby_state_403ce7|12|3 35,0,0,0,0,0,0,0,0,0,0,0,0,0,0,35,
scooby_state_403ce7|52|3 34,0,0,0,1,0,0,0,0,0,0,0,0,0,0,35,
scooby_state_403ce7|13|3 35,0,0,0,0,0,0,0,0,0,0,0,0,0,0,35,
scooby_state_403ce7|23|3 35,0,0,0,0,0,0,0,0,0,0,0,0,0,0,35,
scooby_state_403ce7|53|3 34,0,0,0,0,0,0,0,0,0,0,0,0,0,0,34,
scooby_state_403ce7|39|3 34,0,0,0,0,0,0,0,0,0,0,0,0,0,0,34,
scooby_state_403ce7|38|3 34,0,0,0,0,0,0,0,0,0,0,0,0,0,0,34,
scooby_state_403ce7|22|3 34,0,0,0,0,0,0,0,0,0,0,0,0,0,0,34,
scooby_state_403ce7|4|3 34,0,0,0,0,0,0,0,0,0,0,0,0,0,0,34,
scooby_state_403ce7|51|3 34,0,0,0,0,0,0,0,0,0,0,0,0,0,0,34,
scooby_state_403ce7|32|3 34,0,0,0,0,0,0,0,0,0,0,0,0,0,0,34,
scooby_state_403ce7|28|3 34,0,0,0,0,0,0,0,0,0,0,0,0,0,0,34,
scooby_state_403d10|31|3 34,0,0,0,0,0,0,0,0,0,0,0,0,0,0,34,
scooby_state_41c9ce|33|1 34,0,0,0,0,0,0,0,0,0,0,0,0,0,0,34,
scooby_state_403ce7|56|3 33,0,0,0,0,0,0,0,0,0,0,0,0,0,0,33,
scooby_state_403ce7|17|3 33,0,0,0,0,0,0,0,0,0,0,0,0,0,0,33,
scooby_state_403d10|36|3 33,0,0,0,0,0,0,0,0,0,0,0,0,0,0,33,
scooby_state_403ce7|30|3 33,0,0,0,0,0,0,0,0,0,0,0,0,0,0,33,
scooby_state_403ce7|55|3 33,0,0,0,0,0,0,0,0,0,0,0,0,0,0,33,
scooby_state_403ce7|61|3 33,0,0,0,0,0,0,0,0,0,0,0,0,0,0,33,
scooby_state_403ce7|11|3 33,0,0,0,0,0,0,0,0,0,0,0,0,0,0,33,
scooby_state_403ce7|59|3 33,0,0,0,0,0,0,0,0,0,0,0,0,0,0,33,
scooby_state_403d10|56|3 33,0,0,0,0,0,0,0,0,0,0,0,0,0,0,33,
scooby_state_403ce7|57|3 33,0,0,0,0,0,0,0,0,0,0,0,0,0,0,33,
scooby_state_41c9ce|1|1 33,0,0,0,0,0,0,0,0,0,0,0,0,0,0,33,
scooby_state_403bd3|0|0 32,0,0,0,0,0,0,0,0,0,0,0,0,0,0,32,
scooby_state_403ce7|9|3 32,0,0,0,0,0,0,0,0,0,0,0,0,0,0,32,
scooby_state_403ce7|14|3 32,0,0,0,0,0,0,0,0,0,0,0,0,0,0,32,
scooby_state_418aae|0|0 32,0,0,0,0,0,0,0,0,0,0,0,0,0,0,32,
scooby_state_403ce7|42|3 32,0,0,0,0,0,0,0,0,0,0,0,0,0,0,32,
scooby_state_403d10|41|3 31,0,0,0,1,0,0,0,0,0,0,0,0,0,0,32,
scooby_state_403ce7|40|3 32,0,0,0,0,0,0,0,0,0,0,0,0,0,0,32,
scooby_state_403d10|4|3 31,0,0,0,0,0,0,0,0,1,0,0,0,0,0,32,
scooby_state_403ce7|10|3 32,0,0,0,0,0,0,0,0,0,0,0,0,0,0,32,
scooby_state_403ce7|58|3 32,0,0,0,0,0,0,0,0,0,0,0,0,0,0,32,
scooby_state_403ce7|43|3 32,0,0,0,0,0,0,0,0,0,0,0,0,0,0,32,
scooby_state_41c9ce|9|1 32,0,0,0,0,0,0,0,0,0,0,0,0,0,0,32,
scooby_state_41c9ce|8|1 32,0,0,0,0,0,0,0,0,0,0,0,0,0,0,32,
scooby_state_403ce7|33|3 32,0,0,0,0,0,0,0,0,0,0,0,0,0,0,32,
scooby_state_403ce7|48|3 32,0,0,0,0,0,0,0,0,0,0,0,0,0,0,32,
scooby_state_403d10|22|3 32,0,0,0,0,0,0,0,0,0,0,0,0,0,0,32,
scooby_state_403ce7|60|3 32,0,0,0,0,0,0,0,0,0,0,0,0,0,0,32,
scooby_state_403d10|23|3 32,0,0,0,0,0,0,0,0,0,0,0,0,0,0,32,
scooby_state_403bd3|41|1 32,0,0,0,0,0,0,0,0,0,0,0,0,0,0,32,
scooby_state_41c9ce|17|1 32,0,0,0,0,0,0,0,0,0,0,0,0,0,0,32,
scooby_state_403ce7|24|3 32,0,0,0,0,0,0,0,0,0,0,0,0,0,0,32,
scooby_state_403ce7|16|3 32,0,0,0,0,0,0,0,0,0,0,0,0,0,0,32,
scooby_state_403ce7|35|3 32,0,0,0,0,0,0,0,0,0,0,0,0,0,0,32,
scooby_state_403ce7|29|3 32,0,0,0,0,0,0,0,0,0,0,0,0,0,0,32,
scooby_state_403d10|32|3 32,0,0,0,0,0,0,0,0,0,0,0,0,0,0,32,
scooby_state_403ce7|21|3 32,0,0,0,0,0,0,0,0,0,0,0,0,0,0,32,
scooby_state_41c9ce|31|1 32,0,0,0,0,0,0,0,0,0,0,0,0,0,0,32,
scooby_state_403ce7|54|3 32,0,0,0,0,0,0,0,0,0,0,0,0,0,0,32,
scooby_state_403d10|33|3 31,0,0,0,0,0,0,0,0,0,0,0,0,0,0,31,
scooby_state_403d10|21|3 31,0,0,0,0,0,0,0,0,0,0,0,0,0,0,31,
scooby_state_403d10|26|3 31,0,0,0,0,0,0,0,0,0,0,0,0,0,0,31,
scooby_state_41c9ce|40|1 31,0,0,0,0,0,0,0,0,0,0,0,0,0,0,31,
scooby_state_403ce7|50|3 31,0,0,0,0,0,0,0,0,0,0,0,0,0,0,31,
scooby_state_403ce7|18|3 31,0,0,0,0,0,0,0,0,0,0,0,0,0,0,31,
scooby_state_403ce7|25|3 31,0,0,0,0,0,0,0,0,0,0,0,0,0,0,31,
scooby_state_403ce7|5|3 31,0,0,0,0,0,0,0,0,0,0,0,0,0,0,31,
scooby_state_403d10|27|3 31,0,0,0,0,0,0,0,0,0,0,0,0,0,0,31,
scooby_state_403ce7|7|3 31,0,0,0,0,0,0,0,0,0,0,0,0,0,0,31,
scooby_state_41c9ce|49|1 31,0,0,0,0,0,0,0,0,0,0,0,0,0,0,31,
scooby_state_403ce7|15|3 31,0,0,0,0,0,0,0,0,0,0,0,0,0,0,31,
scooby_state_403d10|43|3 31,0,0,0,0,0,0,0,0,0,0,0,0,0,0,31,
scooby_state_41c9ce|41|1 31,0,0,0,0,0,0,0,0,0,0,0,0,0,0,31,
scooby_state_403d10|57|3 31,0,0,0,0,0,0,0,0,0,0,0,0,0,0,31,
scooby_state_403d10|61|3 31,0,0,0,0,0,0,0,0,0,0,0,0,0,0,31,
scooby_state_403d10|55|3 31,0,0,0,0,0,0,0,0,0,0,0,0,0,0,31,
scooby_state_403ce7|63|3 31,0,0,0,0,0,0,0,0,0,0,0,0,0,0,31,
scooby_state_403d10|52|3 31,0,0,0,0,0,0,0,0,0,0,0,0,0,0,31,
scooby_state_41c9ce|63|1 31,0,0,0,0,0,0,0,0,0,0,0,0,0,0,31,
scooby_state_403ce7|37|3 31,0,0,0,0,0,0,0,0,0,0,0,0,0,0,31,
scooby_state_403ce7|45|3 30,0,0,0,0,0,0,0,0,0,0,0,0,0,0,30,
scooby_state_403d10|53|3 30,0,0,0,0,0,0,0,0,0,0,0,0,0,0,30,
scooby_state_403bd3|40|1 30,0,0,0,0,0,0,0,0,0,0,0,0,0,0,30,
scooby_state_403d10|38|3 30,0,0,0,0,0,0,0,0,0,0,0,0,0,0,30,
scooby_state_41c9ce|12|1 30,0,0,0,0,0,0,0,0,0,0,0,0,0,0,30,
scooby_state_41c9ce|45|1 30,0,0,0,0,0,0,0,0,0,0,0,0,0,0,30,
scooby_state_403d10|48|3 30,0,0,0,0,0,0,0,0,0,0,0,0,0,0,30,
scooby_state_403d10|3|3 30,0,0,0,0,0,0,0,0,0,0,0,0,0,0,30,
scooby_state_403ce7|20|3 30,0,0,0,0,0,0,0,0,0,0,0,0,0,0,30,
scooby_state_41c9ce|20|1 30,0,0,0,0,0,0,0,0,0,0,0,0,0,0,30,
scooby_state_403d10|12|3 30,0,0,0,0,0,0,0,0,0,0,0,0,0,0,30,
scooby_state_403d10|5|3 30,0,0,0,0,0,0,0,0,0,0,0,0,0,0,30,
scooby_state_41c9ce|11|1 30,0,0,0,0,0,0,0,0,0,0,0,0,0,0,30,
scooby_state_41c9ce|7|1 30,0,0,0,0,0,0,0,0,0,0,0,0,0,0,30,
scooby_state_403d10|51|3 29,0,0,0,0,0,0,1,0,0,0,0,0,0,0,30,
scooby_state_403ce7|46|3 30,0,0,0,0,0,0,0,0,0,0,0,0,0,0,30,
scooby_state_403d10|30|3 29,0,0,0,0,1,0,0,0,0,0,0,0,0,0,30,
scooby_state_403ce7|8|3 30,0,0,0,0,0,0,0,0,0,0,0,0,0,0,30,
scooby_state_403ce7|44|3 30,0,0,0,0,0,0,0,0,0,0,0,0,0,0,30,
scooby_state_403ce7|34|3 30,0,0,0,0,0,0,0,0,0,0,0,0,0,0,30,
scooby_state_403be3|0|0 30,0,0,0,0,0,0,0,0,0,0,0,0,0,0,30,
scooby_state_403d10|28|3 30,0,0,0,0,0,0,0,0,0,0,0,0,0,0,30,
scooby_state_403ce7|6|3 30,0,0,0,0,0,0,0,0,0,0,0,0,0,0,30,
scooby_state_403d10|39|3 30,0,0,0,0,0,0,0,0,0,0,0,0,0,0,30,
scooby_state_403d10|50|3 29,0,0,0,0,0,0,0,0,0,0,0,0,0,0,29,
scooby_state_403d10|11|3 29,0,0,0,0,0,0,0,0,0,0,0,0,0,0,29,
scooby_state_41c9ce|39|1 29,0,0,0,0,0,0,0,0,0,0,0,0,0,0,29,
scooby_state_403d10|6|3 29,0,0,0,0,0,0,0,0,0,0,0,0,0,0,29,
scooby_state_403ce7|49|3 29,0,0,0,0,0,0,0,0,0,0,0,0,0,0,29,
scooby_state_41c9ce|13|1 29,0,0,0,0,0,0,0,0,0,0,0,0,0,0,29,
scooby_state_41c9ce|10|1 29,0,0,0,0,0,0,0,0,0,0,0,0,0,0,29,
scooby_state_403ce7|19|3 29,0,0,0,0,0,0,0,0,0,0,0,0,0,0,29,
scooby_state_41c9ce|44|1 29,0,0,0,0,0,0,0,0,0,0,0,0,0,0,29,
scooby_state_403d10|29|3 29,0,0,0,0,0,0,0,0,0,0,0,0,0,0,29,
scooby_state_403d10|42|3 29,0,0,0,0,0,0,0,0,0,0,0,0,0,0,29,
scooby_state_403d10|14|3 29,0,0,0,0,0,0,0,0,0,0,0,0,0,0,29,
scooby_state_403ce7|62|3 29,0,0,0,0,0,0,0,0,0,0,0,0,0,0,29,
scooby_state_41c9ce|43|1 29,0,0,0,0,0,0,0,0,0,0,0,0,0,0,29,
scooby_state_41c9ce|52|1 28,0,0,0,0,0,0,0,0,0,0,0,0,1,0,29,
scooby_state_403d10|17|3 29,0,0,0,0,0,0,0,0,0,0,0,0,0,0,29,
scooby_state_403d10|7|3 29,0,0,0,0,0,0,0,0,0,0,0,0,0,0,29,
scooby_state_403d10|59|3 29,0,0,0,0,0,0,0,0,0,0,0,0,0,0,29,
scooby_state_403d10|13|3 29,0,0,0,0,0,0,0,0,0,0,0,0,0,0,29,
scooby_state_403ce7|47|3 29,0,0,0,0,0,0,0,0,0,0,0,0,0,0,29,
scooby_state_403d10|18|3 28,0,0,0,0,0,0,0,1,0,0,0,0,0,0,29,
scooby_state_403d10|9|3 29,0,0,0,0,0,0,0,0,0,0,0,0,0,0,29,
scooby_state_403d10|46|3 29,0,0,0,0,0,0,0,0,0,0,0,0,0,0,29,
scooby_state_403d10|44|3 29,0,0,0,0,0,0,0,0,0,0,0,0,0,0,29,
scooby_state_403cef|63|1 3,0,0,0,0,0,0,25,0,0,0,0,0,0,0,28,
scooby_state_403d10|54|3 28,0,0,0,0,0,0,0,0,0,0,0,0,0,0,28,
scooby_state_403d10|60|3 28,0,0,0,0,0,0,0,0,0,0,0,0,0,0,28,
scooby_state_403cdf|63|1 2,0,26,0,0,0,0,0,0,0,0,0,0,0,0,28,
scooby_state_403cef|28|-2 0,0,0,0,0,0,0,28,0,0,0,0,0,0,0,28,
scooby_state_403d10|37|3 28,0,0,0,0,0,0,0,0,0,0,0,0,0,0,28,
scooby_state_41c9ce|16|1 28,0,0,0,0,0,0,0,0,0,0,0,0,0,0,28,
scooby_state_41c9ce|19|1 28,0,0,0,0,0,0,0,0,0,0,0,0,0,0,28,
scooby_state_41c9ce|18|1 28,0,0,0,0,0,0,0,0,0,0,0,0,0,0,28,
scooby_state_41c9ce|48|1 28,0,0,0,0,0,0,0,0,0,0,0,0,0,0,28,
scooby_state_403d10|58|3 28,0,0,0,0,0,0,0,0,0,0,0,0,0,0,28,
scooby_state_41c9ce|30|1 28,0,0,0,0,0,0,0,0,0,0,0,0,0,0,28,
scooby_state_403d10|40|3 28,0,0,0,0,0,0,0,0,0,0,0,0,0,0,28,
scooby_state_403d10|47|3 28,0,0,0,0,0,0,0,0,0,0,0,0,0,0,28,
scooby_state_403d10|45|3 28,0,0,0,0,0,0,0,0,0,0,0,0,0,0,28,
scooby_state_41c9ce|50|1 28,0,0,0,0,0,0,0,0,0,0,0,0,0,0,28,
scooby_state_403cef|0|-2 0,0,0,0,0,0,0,28,0,0,0,0,0,0,0,28,
scooby_state_403cef|1|-2 0,0,0,0,0,0,0,28,0,0,0,0,0,0,0,28,
scooby_state_403d10|35|3 28,0,0,0,0,0,0,0,0,0,0,0,0,0,0,28,
scooby_state_403d10|24|3 28,0,0,0,0,0,0,0,0,0,0,0,0,0,0,28,
scooby_state_403cef|10|-2 0,0,0,0,0,0,0,27,0,1,0,0,0,0,0,28,
scooby_state_41c9ce|21|1 28,0,0,0,0,0,0,0,0,0,0,0,0,0,0,28,
scooby_state_403d10|34|3 28,0,0,0,0,0,0,0,0,0,0,0,0,0,0,28,
scooby_state_41c9ce|42|1 28,0,0,0,0,0,0,0,0,0,0,0,0,0,0,28,
scooby_state_403d10|20|3 28,0,0,0,0,0,0,0,0,0,0,0,0,0,0,28,
scooby_state_41c9ce|51|1 27,0,0,0,0,0,0,0,0,0,0,0,0,0,0,27,
scooby_state_403cef|29|-2 0,0,0,0,0,0,0,27,0,0,0,0,0,0,0,27,
scooby_state_403d10|62|3 27,0,0,0,0,0,0,0,0,0,0,0,0,0,0,27,
scooby_state_41c9ce|38|1 27,0,0,0,0,0,0,0,0,0,0,0,0,0,0,27,
scooby_state_403cef|25|-2 0,0,0,0,0,0,0,27,0,0,0,0,0,0,0,27,
scooby_state_41c9ce|23|1 27,0,0,0,0,0,0,0,0,0,0,0,0,0,0,27,
scooby_state_403cef|24|-2 0,0,0,0,0,0,0,27,0,0,0,0,0,0,0,27,
scooby_state_403cef|30|-2 0,0,0,0,0,0,0,27,0,0,0,0,0,0,0,27,
scooby_state_403d10|8|3 26,0,0,0,0,0,0,0,1,0,0,0,0,0,0,27,
scooby_state_41c9ce|62|1 27,0,0,0,0,0,0,0,0,0,0,0,0,0,0,27,
scooby_state_403d10|25|3 27,0,0,0,0,0,0,0,0,0,0,0,0,0,0,27,
scooby_state_41c9ce|25|1 27,0,0,0,0,0,0,0,0,0,0,0,0,0,0,27,
scooby_state_403cef|20|-2 0,0,0,0,0,0,0,27,0,0,0,0,0,0,0,27,
scooby_state_403cef|23|-2 0,0,0,0,0,0,0,27,0,0,0,0,0,0,0,27,
scooby_state_403d10|19|3 27,0,0,0,0,0,0,0,0,0,0,0,0,0,0,27,
scooby_state_403cef|15|-2 0,0,0,0,0,0,0,27,0,0,0,0,0,0,0,27,
scooby_state_403cef|33|-2 0,0,0,0,0,0,0,27,0,0,0,0,0,0,0,27,
scooby_state_403d10|63|3 27,0,0,0,0,0,0,0,0,0,0,0,0,0,0,27,
scooby_state_41c9ce|4|1 27,0,0,0,0,0,0,0,0,0,0,0,0,0,0,27,
scooby_state_403cef|49|-2 0,0,0,0,0,0,0,27,0,0,0,0,0,0,0,27,
scooby_state_41c9ce|53|1 27,0,0,0,0,0,0,0,0,0,0,0,0,0,0,27,
scooby_state_403d10|10|3 27,0,0,0,0,0,0,0,0,0,0,0,0,0,0,27,
scooby_state_41c9af|15|1 26,0,0,0,0,0,0,0,0,0,0,0,0,0,0,26,
scooby_state_403cef|37|-2 0,0,0,0,0,0,0,26,0,0,0,0,0,0,0,26,
scooby_state_403cef|43|-2 0,0,0,0,0,0,0,26,0,0,0,0,0,0,0,26,
scooby_state_41c9ce|2|1 26,0,0,0,0,0,0,0,0,0,0,0,0,0,0,26,
scooby_state_41c9ce|22|1 26,0,0,0,0,0,0,0,0,0,0,0,0,0,0,26,
scooby_state_41c9af|8|1 25,0,1,0,0,0,0,0,0,0,0,0,0,0,0,26,
scooby_state_41c9af|18|1 26,0,0,0,0,0,0,0,0,0,0,0,0,0,0,26,
scooby_state_41c9af|13|1 26,0,0,0,0,0,0,0,0,0,0,0,0,0,0,26,
scooby_state_403d10|49|3 26,0,0,0,0,0,0,0,0,0,0,0,0,0,0,26,
scooby_state_403cef|52|-2 0,0,0,0,0,0,0,26,0,0,0,0,0,0,0,26,
scooby_state_403d10|15|3 26,0,0,0,0,0,0,0,0,0,0,0,0,0,0,26,
scooby_state_41c9ce|6|1 26,0,0,0,0,0,0,0,0,0,0,0,0,0,0,26,
scooby_state_41c9af|42|1 26,0,0,0,0,0,0,0,0,0,0,0,0,0,0,26,
scooby_state_41c9af|6|1 26,0,0,0,0,0,0,0,0,0,0,0,0,0,0,26,
scooby_state_41c9af|11|1 26,0,0,0,0,0,0,0,0,0,0,0,0,0,0,26,
scooby_state_41c9af|9|1 26,0,0,0,0,0,0,0,0,0,0,0,0,0,0,26,
scooby_state_41c9af|40|1 26,0,0,0,0,0,0,0,0,0,0,0,0,0,0,26,
scooby_state_41c9ce|3|1 26,0,0,0,0,0,0,0,0,0,0,0,0,0,0,26,
scooby_state_403cef|8|-2 0,0,0,0,0,0,0,26,0,0,0,0,0,0,0,26,
scooby_state_41c9af|41|1 26,0,0,0,0,0,0,0,0,0,0,0,0,0,0,26,
scooby_state_41c9ce|34|1 26,0,0,0,0,0,0,0,0,0,0,0,0,0,0,26,
scooby_state_41c9ce|59|1 26,0,0,0,0,0,0,0,0,0,0,0,0,0,0,26,
scooby_state_41c9af|37|1 26,0,0,0,0,0,0,0,0,0,0,0,0,0,0,26,
scooby_state_41c9ce|60|1 25,0,0,0,1,0,0,0,0,0,0,0,0,0,0,26,
scooby_state_41c9af|47|1 26,0,0,0,0,0,0,0,0,0,0,0,0,0,0,26,
scooby_state_41c9af|32|1 26,0,0,0,0,0,0,0,0,0,0,0,0,0,0,26,
scooby_state_403c3d|0|0 0,0,26,0,0,0,0,0,0,0,0,0,0,0,0,26,
scooby_state_41c9ce|5|1 26,0,0,0,0,0,0,0,0,0,0,0,0,0,0,26,
scooby_state_403cdf|1|-2 2,0,24,0,0,0,0,0,0,0,0,0,0,0,0,26,
scooby_state_403cef|38|-2 0,0,0,0,0,0,0,26,0,0,0,0,0,0,0,26,
scooby_state_41c9af|34|1 26,0,0,0,0,0,0,0,0,0,0,0,0,0,0,26,
scooby_state_41c9af|16|1 26,0,0,0,0,0,0,0,0,0,0,0,0,0,0,26,
scooby_state_403cef|58|-2 0,0,0,0,0,0,0,26,0,0,0,0,0,0,0,26,
scooby_state_403cef|57|-2 0,0,0,0,0,0,0,26,0,0,0,0,0,0,0,26,
scooby_state_403cdf|29|-2 1,1,24,0,0,0,0,0,0,0,0,0,0,0,0,26,
scooby_state_41c9af|38|1 26,0,0,0,0,0,0,0,0,0,0,0,0,0,0,26,
scooby_state_41c9af|19|1 26,0,0,0,0,0,0,0,0,0,0,0,0,0,0,26,
scooby_state_41c9af|36|1 26,0,0,0,0,0,0,0,0,0,0,0,0,0,0,26,
scooby_state_41c9af|14|1 26,0,0,0,0,0,0,0,0,0,0,0,0,0,0,26,
scooby_state_403cdf|30|-2 2,0,24,0,0,0,0,0,0,0,0,0,0,0,0,26,
scooby_state_41c9af|28|1 26,0,0,0,0,0,0,0,0,0,0,0,0,0,0,26,
scooby_state_41c9ce|47|1 26,0,0,0,0,0,0,0,0,0,0,0,0,0,0,26,
scooby_state_403d10|16|3 26,0,0,0,0,0,0,0,0,0,0,0,0,0,0,26,
scooby_state_41c9af|33|1 26,0,0,0,0,0,0,0,0,0,0,0,0,0,0,26,
scooby_state_41c9ce|61|1 26,0,0,0,0,0,0,0,0,0,0,0,0,0,0,26,
scooby_state_41c9af|45|1 26,0,0,0,0,0,0,0,0,0,0,0,0,0,0,26,
scooby_state_41c9ce|46|1 26,0,0,0,0,0,0,0,0,0,0,0,0,0,0,26,
scooby_state_403cef|21|-2 0,0,0,0,0,0,0,26,0,0,0,0,0,0,0,26,
scooby_state_41c9af|25|1 26,0,0,0,0,0,0,0,0,0,0,0,0,0,0,26,
scooby_state_403cdf|20|-2 2,0,24,0,0,0,0,0,0,0,0,0,0,0,0,26,
scooby_state_41c9af|27|1 26,0,0,0,0,0,0,0,0,0,0,0,0,0,0,26,
scooby_state_403cef|35|-2 0,0,0,0,0,0,0,26,0,0,0,0,0,0,0,26,
scooby_state_403cef|39|-2 0,0,0,0,0,0,0,26,0,0,0,0,0,0,0,26,
scooby_state_41c9af|5|1 26,0,0,0,0,0,0,0,0,0,0,0,0,0,0,26,
scooby_state_41c9ce|26|1 26,0,0,0,0,0,0,0,0,0,0,0,0,0,0,26,
scooby_state_41c9ce|56|1 26,0,0,0,0,0,0,0,0,0,0,0,0,0,0,26,
scooby_state_41c9af|29|1 26,0,0,0,0,0,0,0,0,0,0,0,0,0,0,26,
scooby_state_41c9af|46|1 26,0,0,0,0,0,0,0,0,0,0,0,0,0,0,26,
scooby_state_41c9ce|35|1 26,0,0,0,0,0,0,0,0,0,0,0,0,0,0,26,
scooby_state_41c9af|22|1 26,0,0,0,0,0,0,0,0,0,0,0,0,0,0,26,
scooby_state_403bd3|42|1 26,0,0,0,0,0,0,0,0,0,0,0,0,0,0,26,
scooby_state_403cdf|54|-2 2,0,24,0,0,0,0,0,0,0,0,0,0,0,0,26,
scooby_state_41c9af|31|1 26,0,0,0,0,0,0,0,0,0,0,0,0,0,0,26,
scooby_state_41c9af|35|1 26,0,0,0,0,0,0,0,0,0,0,0,0,0,0,26,
scooby_state_41c9ce|29|1 25,0,0,0,0,0,0,0,0,0,0,0,0,1,0,26,
scooby_state_41c9af|30|1 26,0,0,0,0,0,0,0,0,0,0,0,0,0,0,26,
scooby_state_403cef|13|-2 0,0,0,0,0,0,0,26,0,0,0,0,0,0,0,26,
scooby_state_41c9af|24|1 26,0,0,0,0,0,0,0,0,0,0,0,0,0,0,26,
scooby_state_41c9ce|24|1 26,0,0,0,0,0,0,0,0,0,0,0,0,0,0,26,
scooby_state_41c9af|20|1 26,0,0,0,0,0,0,0,0,0,0,0,0,0,0,26,
scooby_state_41c9af|4|1 26,0,0,0,0,0,0,0,0,0,0,0,0,0,0,26,
scooby_state_41c9ce|55|1 26,0,0,0,0,0,0,0,0,0,0,0,0,0,0,26,
scooby_state_41c9af|7|1 26,0,0,0,0,0,0,0,0,0,0,0,0,0,0,26,
scooby_state_41c9af|12|1 26,0,0,0,0,0,0,0,0,0,0,0,0,0,0,26,
scooby_state_403cdf|28|-2 0,1,25,0,0,0,0,0,0,0,0,0,0,0,0,26,
scooby_state_41c9af|44|1 26,0,0,0,0,0,0,0,0,0,0,0,0,0,0,26,
scooby_state_41c9af|17|1 26,0,0,0,0,0,0,0,0,0,0,0,0,0,0,26,
scooby_state_403cef|54|-2 0,0,0,0,0,0,0,26,0,0,0,0,0,0,0,26,
scooby_state_41c9af|48|1 26,0,0,0,0,0,0,0,0,0,0,0,0,0,0,26,
scooby_state_403cef|50|-2 0,0,0,0,0,0,0,26,0,0,0,0,0,0,0,26,
scooby_state_41c9af|23|1 26,0,0,0,0,0,0,0,0,0,0,0,0,0,0,26,
scooby_state_41c9af|43|1 26,0,0,0,0,0,0,0,0,0,0,0,0,0,0,26,
scooby_state_41c9ce|58|1 26,0,0,0,0,0,0,0,0,0,0,0,0,0,0,26,
scooby_state_41c9af|21|1 26,0,0,0,0,0,0,0,0,0,0,0,0,0,0,26,
scooby_state_41c9ce|57|1 26,0,0,0,0,0,0,0,0,0,0,0,0,0,0,26,
scooby_state_41c9af|3|1 26,0,0,0,0,0,0,0,0,0,0,0,0,0,0,26,
scooby_state_41c9af|10|1 26,0,0,0,0,0,0,0,0,0,0,0,0,0,0,26,
scooby_state_403cef|40|-2 0,0,0,0,0,0,0,26,0,0,0,0,0,0,0,26,
scooby_state_41c9af|26|1 26,0,0,0,0,0,0,0,0,0,0,0,0,0,0,26,
scooby_state_403cdf|4|-2 0,1,24,0,0,0,0,0,0,0,0,0,0,0,0,25,
scooby_state_403cef|48|-2 0,0,0,0,0,0,0,25,0,0,0,0,0,0,0,25,
scooby_state_41c9ce|15|1 25,0,0,0,0,0,0,0,0,0,0,0,0,0,0,25,
scooby_state_41c9af|61|1 25,0,0,0,0,0,0,0,0,0,0,0,0,0,0,25,
scooby_state_41c9af|60|1 25,0,0,0,0,0,0,0,0,0,0,0,0,0,0,25,
scooby_state_41c9af|53|1 25,0,0,0,0,0,0,0,0,0,0,0,0,0,0,25,
scooby_state_403cdf|33|-2 0,1,24,0,0,0,0,0,0,0,0,0,0,0,0,25,
scooby_state_41c9af|62|1 25,0,0,0,0,0,0,0,0,0,0,0,0,0,0,25,
scooby_state_41c9ce|14|1 25,0,0,0,0,0,0,0,0,0,0,0,0,0,0,25,
scooby_state_403cef|53|-2 0,0,0,0,0,0,0,25,0,0,0,0,0,0,0,25,
scooby_state_41c9af|59|1 25,0,0,0,0,0,0,0,0,0,0,0,0,0,0,25,
scooby_state_403cef|45|-2 0,0,0,0,0,0,0,25,0,0,0,0,0,0,0,25,
scooby_state_403cdf|43|-2 0,0,25,0,0,0,0,0,0,0,0,0,0,0,0,25,
scooby_state_403bd3|63|1 25,0,0,0,0,0,0,0,0,0,0,0,0,0,0,25,
scooby_state_403cef|18|-2 0,0,0,0,0,0,0,24,0,0,0,0,0,0,1,25,
scooby_state_403cef|19|-2 0,0,0,0,0,0,0,25,0,0,0,0,0,0,0,25,
scooby_state_403cdf|18|-2 0,0,25,0,0,0,0,0,0,0,0,0,0,0,0,25,
scooby_state_41c9ce|27|1 25,0,0,0,0,0,0,0,0,0,0,0,0,0,0,25,
scooby_state_41c9af|49|1 25,0,0,0,0,0,0,0,0,0,0,0,0,0,0,25,
scooby_state_41c9af|2|1 25,0,0,0,0,0,0,0,0,0,0,0,0,0,0,25,
scooby_state_403cef|3|-2 0,0,0,0,0,0,0,25,0,0,0,0,0,0,0,25,
scooby_state_403cef|55|-2 0,0,0,0,0,0,0,25,0,0,0,0,0,0,0,25,
scooby_state_41c9af|50|1 25,0,0,0,0,0,0,0,0,0,0,0,0,0,0,25,
scooby_state_403cdf|48|-2 1,0,24,0,0,0,0,0,0,0,0,0,0,0,0,25,
scooby_state_403cdf|25|-2 2,0,23,0,0,0,0,0,0,0,0,0,0,0,0,25,
scooby_state_41c9af|58|1 25,0,0,0,0,0,0,0,0,0,0,0,0,0,0,25,
scooby_state_403cef|26|-2 0,0,0,0,0,0,0,25,0,0,0,0,0,0,0,25,
scooby_state_403cef|9|-2 0,0,0,0,0,0,0,25,0,0,0,0,0,0,0,25,
scooby_state_403cef|4|-2 0,0,0,0,0,0,0,25,0,0,0,0,0,0,0,25,
scooby_state_41c9ce|28|1 25,0,0,0,0,0,0,0,0,0,0,0,0,0,0,25,
scooby_state_403cdf|53|-2 1,0,24,0,0,0,0,0,0,0,0,0,0,0,0,25,
scooby_state_41c9af|1|1 25,0,0,0,0,0,0,0,0,0,0,0,0,0,0,25,
scooby_state_41c9af|54|1 25,0,0,0,0,0,0,0,0,0,0,0,0,0,0,25,
scooby_state_41c9af|52|1 25,0,0,0,0,0,0,0,0,0,0,0,0,0,0,25,
scooby_state_41c9af|0|0 25,0,0,0,0,0,0,0,0,0,0,0,0,0,0,25,
scooby_state_403cdf|40|-2 2,0,23,0,0,0,0,0,0,0,0,0,0,0,0,25,
scooby_state_41c9af|57|1 25,0,0,0,0,0,0,0,0,0,0,0,0,0,0,25,
scooby_state_403cdf|49|-2 2,0,23,0,0,0,0,0,0,0,0,0,0,0,0,25,
scooby_state_41c9af|63|1 25,0,0,0,0,0,0,0,0,0,0,0,0,0,0,25,
scooby_state_403cef|34|-2 0,1,0,0,0,0,0,24,0,0,0,0,0,0,0,25,
scooby_state_41c9af|51|1 25,0,0,0,0,0,0,0,0,0,0,0,0,0,0,25,
scooby_state_403cdf|23|-2 0,1,24,0,0,0,0,0,0,0,0,0,0,0,0,25,
scooby_state_403cef|32|-2 0,0,0,0,0,0,0,25,0,0,0,0,0,0,0,25,
scooby_state_41c9af|56|1 25,0,0,0,0,0,0,0,0,0,0,0,0,0,0,25,
scooby_state_41c9ce|54|1 25,0,0,0,0,0,0,0,0,0,0,0,0,0,0,25,
scooby_state_403cdf|15|-2 2,0,23,0,0,0,0,0,0,0,0,0,0,0,0,25,
scooby_state_403cef|11|-2 0,0,0,0,0,0,0,25,0,0,0,0,0,0,0,25,
scooby_state_41c9af|55|1 25,0,0,0,0,0,0,0,0,0,0,0,0,0,0,25,
scooby_state_403cef|60|-2 0,0,0,0,0,0,0,24,0,0,0,0,0,0,0,24,
scooby_state_403bd3|25|1 24,0,0,0,0,0,0,0,0,0,0,0,0,0,0,24,
scooby_state_403cdf|37|-2 0,0,24,0,0,0,0,0,0,0,0,0,0,0,0,24,
scooby_state_403cef|6|-2 0,0,0,0,0,0,0,24,0,0,0,0,0,0,0,24,
scooby_state_403cef|5|-2 0,0,0,0,0,0,0,24,0,0,0,0,0,0,0,24,
scooby_state_41c9af|39|1 24,0,0,0,0,0,0,0,0,0,0,0,0,0,0,24,
scooby_state_403bd3|48|1 24,0,0,0,0,0,0,0,0,0,0,0,0,0,0,24,
scooby_state_403cdf|52|-2 0,0,24,0,0,0,0,0,0,0,0,0,0,0,0,24,
scooby_state_403bd3|56|1 24,0,0,0,0,0,0,0,0,0,0,0,0,0,0,24,
scooby_state_403cef|7|-2 0,0,0,0,0,0,0,24,0,0,0,0,0,0,0,24,
scooby_state_403cdf|34|-2 1,0,23,0,0,0,0,0,0,0,0,0,0,0,0,24,
scooby_state_403cdf|39|-2 1,0,23,0,0,0,0,0,0,0,0,0,0,0,0,24,
scooby_state_403cdf|9|-2 1,0,23,0,0,0,0,0,0,0,0,0,0,0,0,24,
scooby_state_403cdf|57|-2 0,0,24,0,0,0,0,0,0,0,0,0,0,0,0,24,
scooby_state_403cef|47|-2 0,0,0,0,0,0,0,24,0,0,0,0,0,0,0,24,
scooby_state_403cdf|45|-2 1,0,23,0,0,0,0,0,0,0,0,0,0,0,0,24,
scooby_state_403bd3|31|1 24,0,0,0,0,0,0,0,0,0,0,0,0,0,0,24,
scooby_state_403cdf|10|-2 1,0,23,0,0,0,0,0,0,0,0,0,0,0,0,24,
scooby_state_403cdf|3|-2 0,0,23,0,0,0,1,0,0,0,0,0,0,0,0,24,
scooby_state_403cdf|35|-2 2,0,22,0,0,0,0,0,0,0,0,0,0,0,0,24,
scooby_state_403cdf|0|-2 1,0,23,0,0,0,0,0,0,0,0,0,0,0,0,24,
scooby_state_403cef|36|-2 0,0,0,0,0,0,0,24,0,0,0,0,0,0,0,24,
scooby_state_403cdf|19|-2 0,1,23,0,0,0,0,0,0,0,0,0,0,0,0,24,
scooby_state_403cdf|21|-2 1,0,23,0,0,0,0,0,0,0,0,0,0,0,0,24,
scooby_state_403bd3|11|1 24,0,0,0,0,0,0,0,0,0,0,0,0,0,0,24,
scooby_state_41c9ce|37|1 24,0,0,0,0,0,0,0,0,0,0,0,0,0,0,24,
scooby_state_41c9ce|36|1 24,0,0,0,0,0,0,0,0,0,0,0,0,0,0,24,
scooby_state_403cdf|58|-2 1,0,23,0,0,0,0,0,0,0,0,0,0,0,0,24,
scooby_state_403bd3|30|1 24,0,0,0,0,0,0,0,0,0,0,0,0,0,0,24,
scooby_state_403cdf|38|-2 0,0,24,0,0,0,0,0,0,0,0,0,0,0,0,24,
scooby_state_403cef|42|-2 0,0,0,0,0,0,0,24,0,0,0,0,0,0,0,24,
scooby_state_403bd3|46|1 24,0,0,0,0,0,0,0,0,0,0,0,0,0,0,24,
scooby_state_403cdf|24|-2 0,1,23,0,0,0,0,0,0,0,0,0,0,0,0,24,
scooby_state_403cef|14|-2 0,0,0,0,0,0,0,24,0,0,0,0,0,0,0,24,
scooby_state_403cef|51|-2 0,0,0,0,0,0,0,24,0,0,0,0,0,0,0,24,
scooby_state_403bdb|0|0 0,0,0,24,0,0,0,0,0,0,0,0,0,0,0,24,
scooby_state_403bd3|49|1 24,0,0,0,0,0,0,0,0,0,0,0,0,0,0,24,
scooby_state_403bd3|37|1 23,0,0,0,0,1,0,0,0,0,0,0,0,0,0,24,
scooby_state_403cdf|50|-2 1,0,23,0,0,0,0,0,0,0,0,0,0,0,0,24,
scooby_state_403cdf|59|-2 1,0,22,0,0,0,0,0,0,0,0,0,0,0,0,23,
scooby_state_403cdf|26|-2 1,0,22,0,0,0,0,0,0,0,0,0,0,0,0,23,
scooby_state_403cdf|11|-2 1,0,22,0,0,0,0,0,0,0,0,0,0,0,0,23,
scooby_state_403cef|27|-2 0,0,0,0,0,0,0,23,0,0,0,0,0,0,0,23,
scooby_state_403cef|17|-2 0,0,0,0,0,0,0,23,0,0,0,0,0,0,0,23,
scooby_state_403cdf|32|-2 0,0,23,0,0,0,0,0,0,0,0,0,0,0,0,23,
scooby_state_403cdf|55|-2 1,1,21,0,0,0,0,0,0,0,0,0,0,0,0,23,
scooby_state_403cef|46|-2 0,0,0,0,0,0,0,23,0,0,0,0,0,0,0,23,
scooby_state_403cef|56|-2 0,0,0,0,0,0,0,23,0,0,0,0,0,0,0,23,
scooby_state_403cdf|42|-2 0,0,23,0,0,0,0,0,0,0,0,0,0,0,0,23,
scooby_state_403cef|12|-2 0,0,0,0,0,0,0,23,0,0,0,0,0,0,0,23,
scooby_state_403cef|59|-2 0,0,0,0,0,0,0,23,0,0,0,0,0,0,0,23,
scooby_state_403cdf|8|-2 0,0,23,0,0,0,0,0,0,0,0,0,0,0,0,23,
scooby_state_403cef|61|-2 0,0,0,0,0,0,0,23,0,0,0,0,0,0,0,23,
scooby_state_403cdf|6|-2 1,0,22,0,0,0,0,0,0,0,0,0,0,0,0,23,
scooby_state_403cdf|36|-2 0,0,22,0,0,0,0,0,0,0,0,0,0,0,0,22,
scooby_state_403cdf|12|-2 0,0,22,0,0,0,0,0,0,0,0,0,0,0,0,22,
scooby_state_403cdf|7|-2 0,0,22,0,0,0,0,0,0,0,0,0,0,0,0,22,
scooby_state_403cdf|13|-2 0,0,22,0,0,0,0,0,0,0,0,0,0,0,0,22,
scooby_state_403cef|44|-2 0,0,0,0,0,0,0,22,0,0,0,0,0,0,0,22,
scooby_state_403bd3|53|1 22,0,0,0,0,0,0,0,0,0,0,0,0,0,0,22,
scooby_state_403bd3|57|1 22,0,0,0,0,0,0,0,0,0,0,0,0,0,0,22,
scooby_state_403bd3|54|1 22,0,0,0,0,0,0,0,0,0,0,0,0,0,0,22,
scooby_state_403d10|8|1 22,0,0,0,0,0,0,0,0,0,0,0,0,0,0,22,
scooby_state_403cef|41|-2 0,0,0,0,0,0,0,22,0,0,0,0,0,0,0,22,
scooby_state_403cdf|16|-2 1,0,21,0,0,0,0,0,0,0,0,0,0,0,0,22,
scooby_state_403ce7|47|1 21,0,0,0,0,0,0,0,0,1,0,0,0,0,0,22,
scooby_state_403d10|47|1 22,0,0,0,0,0,0,0,0,0,0,0,0,0,0,22,
scooby_state_403cdf|14|-2 1,0,20,0,0,0,0,0,0,1,0,0,0,0,0,22,
scooby_state_403cdf|51|-2 0,0,22,0,0,0,0,0,0,0,0,0,0,0,0,22,
scooby_state_403cef|16|-2 0,0,0,0,0,0,0,22,0,0,0,0,0,0,0,22,
scooby_state_403cef|2|-2 0,0,0,0,0,0,0,22,0,0,0,0,0,0,0,22,
scooby_state_403cdf|44|-2 1,0,21,0,0,0,0,0,0,0,0,0,0,0,0,22,
scooby_state_403d10|17|1 22,0,0,0,0,0,0,0,0,0,0,0,0,0,0,22,
scooby_state_403cdf|47|-2 0,0,22,0,0,0,0,0,0,0,0,0,0,0,0,22,
scooby_state_403cef|22|-2 0,0,0,0,1,0,0,21,0,0,0,0,0,0,0,22,
scooby_state_403cdf|27|-2 0,0,22,0,0,0,0,0,0,0,0,0,0,0,0,22,
scooby_state_403bd3|44|1 22,0,0,0,0,0,0,0,0,0,0,0,0,0,0,22,
scooby_state_403cdf|2|-2 0,0,22,0,0,0,0,0,0,0,0,0,0,0,0,22,
scooby_state_403bd3|27|1 22,0,0,0,0,0,0,0,0,0,0,0,0,0,0,22,
scooby_state_403bd3|28|1 22,0,0,0,0,0,0,0,0,0,0,0,0,0,0,22,
scooby_state_403cdf|60|-2 1,0,21,0,0,0,0,0,0,0,0,0,0,0,0,22,
scooby_state_403cdf|5|-2 1,0,21,0,0,0,0,0,0,0,0,0,0,0,0,22,
scooby_state_403cdf|41|-2 0,0,22,0,0,0,0,0,0,0,0,0,0,0,0,22,
scooby_state_4189a2|0|0 21,1,0,0,0,0,0,0,0,0,0,0,0,0,0,22,
scooby_state_403be3|1|1 22,0,0,0,0,0,0,0,0,0,0,0,0,0,0,22,
scooby_state_403cdf|46|-2 0,0,22,0,0,0,0,0,0,0,0,0,0,0,0,22,
scooby_state_403bd3|8|1 22,0,0,0,0,0,0,0,0,0,0,0,0,0,0,22,
scooby_state_403cdf|61|-2 0,0,21,0,0,0,0,0,0,0,0,0,0,0,0,21,
scooby_state_403d10|51|1 21,0,0,0,0,0,0,0,0,0,0,0,0,0,0,21,
scooby_state_403cef|31|-2 0,0,0,0,0,0,0,21,0,0,0,0,0,0,0,21,
scooby_state_403cdf|17|-2 0,0,21,0,0,0,0,0,0,0,0,0,0,0,0,21,
scooby_state_403cdf|31|-2 0,0,21,0,0,0,0,0,0,0,0,0,0,0,0,21,
scooby_state_403cdf|56|-2 0,0,21,0,0,0,0,0,0,0,0,0,0,0,0,21,
scooby_state_403bd3|34|1 20,0,0,0,0,0,0,0,0,0,0,0,0,0,0,20,
scooby_state_403ce7|17|1 20,0,0,0,0,0,0,0,0,0,0,0,0,0,0,20,
scooby_state_403d10|3|1 19,0,0,0,0,0,0,0,1,0,0,0,0,0,0,20,
scooby_state_403bd3|50|1 20,0,0,0,0,0,0,0,0,0,0,0,0,0,0,20,
scooby_state_403bd3|45|1 20,0,0,0,0,0,0,0,0,0,0,0,0,0,0,20,
scooby_state_403be3|6|1 20,0,0,0,0,0,0,0,0,0,0,0,0,0,0,20,
scooby_state_403bd3|62|1 20,0,0,0,0,0,0,0,0,0,0,0,0,0,0,20,
scooby_state_403d10|42|1 20,0,0,0,0,0,0,0,0,0,0,0,0,0,0,20,
scooby_state_403ce7|19|1 20,0,0,0,0,0,0,0,0,0,0,0,0,0,0,20,
scooby_state_403d10|25|1 20,0,0,0,0,0,0,0,0,0,0,0,0,0,0,20,
scooby_state_403bd3|58|1 20,0,0,0,0,0,0,0,0,0,0,0,0,0,0,20,
scooby_state_403d10|12|1 20,0,0,0,0,0,0,0,0,0,0,0,0,0,0,20,
scooby_state_403d10|50|1 20,0,0,0,0,0,0,0,0,0,0,0,0,0,0,20,
scooby_state_403bd3|43|1 20,0,0,0,0,0,0,0,0,0,0,0,0,0,0,20,
scooby_state_403bd3|33|1 20,0,0,0,0,0,0,0,0,0,0,0,0,0,0,20,
scooby_state_403d10|22|1 20,0,0,0,0,0,0,0,0,0,0,0,0,0,0,20,
scooby_state_403ce7|8|1 20,0,0,0,0,0,0,0,0,0,0,0,0,0,0,20,
scooby_state_403d10|19|1 20,0,0,0,0,0,0,0,0,0,0,0,0,0,0,20,
scooby_state_403bd3|39|1 20,0,0,0,0,0,0,0,0,0,0,0,0,0,0,20,
scooby_state_403d10|37|1 20,0,0,0,0,0,0,0,0,0,0,0,0,0,0,20,
scooby_state_403bfc|10|0 20,0,0,0,0,0,0,0,0,0,0,0,0,0,0,20,
scooby_state_403bf7|10|0 20,0,0,0,0,0,0,0,0,0,0,0,0,0,0,20,
scooby_state_403bd3|12|1 20,0,0,0,0,0,0,0,0,0,0,0,0,0,0,20,
scooby_state_403bd3|22|1 20,0,0,0,0,0,0,0,0,0,0,0,0,0,0,20,
scooby_state_403cdf|22|-2 0,0,20,0,0,0,0,0,0,0,0,0,0,0,0,20,
scooby_state_403d10|16|1 20,0,0,0,0,0,0,0,0,0,0,0,0,0,0,20,
scooby_state_403ce7|22|1 19,0,0,0,0,0,0,0,0,0,0,0,0,0,0,19,
scooby_state_403ce7|51|1 19,0,0,0,0,0,0,0,0,0,0,0,0,0,0,19,
scooby_state_403d10|11|1 19,0,0,0,0,0,0,0,0,0,0,0,0,0,0,19,
scooby_state_403d10|35|1 19,0,0,0,0,0,0,0,0,0,0,0,0,0,0,19,
scooby_state_403ce7|62|1 19,0,0,0,0,0,0,0,0,0,0,0,0,0,0,19,
scooby_state_403ce7|34|1 19,0,0,0,0,0,0,0,0,0,0,0,0,0,0,19,
scooby_state_403d10|20|1 19,0,0,0,0,0,0,0,0,0,0,0,0,0,0,19,
scooby_state_403d10|56|1 19,0,0,0,0,0,0,0,0,0,0,0,0,0,0,19,
scooby_state_403d10|9|1 19,0,0,0,0,0,0,0,0,0,0,0,0,0,0,19,
scooby_state_403d10|62|1 19,0,0,0,0,0,0,0,0,0,0,0,0,0,0,19,
scooby_state_403bfc|1|0 19,0,0,0,0,0,0,0,0,0,0,0,0,0,0,19,
scooby_state_403ce7|12|1 19,0,0,0,0,0,0,0,0,0,0,0,0,0,0,19,
scooby_state_403ce7|37|1 19,0,0,0,0,0,0,0,0,0,0,0,0,0,0,19,
scooby_state_403d10|14|1 19,0,0,0,0,0,0,0,0,0,0,0,0,0,0,19,
scooby_state_403d10|34|1 19,0,0,0,0,0,0,0,0,0,0,0,0,0,0,19,
scooby_state_403bf7|1|0 19,0,0,0,0,0,0,0,0,0,0,0,0,0,0,19,
scooby_state_403d10|7|1 19,0,0,0,0,0,0,0,0,0,0,0,0,0,0,19,
scooby_state_403d10|45|1 19,0,0,0,0,0,0,0,0,0,0,0,0,0,0,19,
scooby_state_403ce7|56|1 19,0,0,0,0,0,0,0,0,0,0,0,0,0,0,19,
scooby_state_403d10|46|1 19,0,0,0,0,0,0,0,0,0,0,0,0,0,0,19,
scooby_state_403ce7|7|1 19,0,0,0,0,0,0,0,0,0,0,0,0,0,0,19,
scooby_state_403d10|52|1 19,0,0,0,0,0,0,0,0,0,0,0,0,0,0,19,
scooby_state_403d10|10|1 18,0,0,0,0,0,0,0,0,0,0,0,0,0,0,18,
scooby_state_403d10|40|1 18,0,0,0,0,0,0,0,0,0,0,0,0,0,0,18,
scooby_state_403ce7|5|1 18,0,0,0,0,0,0,0,0,0,0,0,0,0,0,18,
scooby_state_403bd3|61|1 18,0,0,0,0,0,0,0,0,0,0,0,0,0,0,18,
scooby_state_403d10|39|1 18,0,0,0,0,0,0,0,0,0,0,0,0,0,0,18,
scooby_state_403be3|49|1 18,0,0,0,0,0,0,0,0,0,0,0,0,0,0,18,
scooby_state_418aae|6|1 18,0,0,0,0,0,0,0,0,0,0,0,0,0,0,18,
scooby_state_403d10|5|1 18,0,0,0,0,0,0,0,0,0,0,0,0,0,0,18,
scooby_state_403be3|58|1 17,1,0,0,0,0,0,0,0,0,0,0,0,0,0,18,
scooby_state_403be3|62|1 18,0,0,0,0,0,0,0,0,0,0,0,0,0,0,18,
scooby_state_403d10|32|1 18,0,0,0,0,0,0,0,0,0,0,0,0,0,0,18,
scooby_state_403d10|54|1 18,0,0,0,0,0,0,0,0,0,0,0,0,0,0,18,
scooby_state_403d10|27|1 18,0,0,0,0,0,0,0,0,0,0,0,0,0,0,18,
scooby_state_403bd3|5|1 18,0,0,0,0,0,0,0,0,0,0,0,0,0,0,18,
scooby_state_403d10|49|1 18,0,0,0,0,0,0,0,0,0,0,0,0,0,0,18,
scooby_state_403bd3|55|1 18,0,0,0,0,0,0,0,0,0,0,0,0,0,0,18,
scooby_state_403bd3|36|1 18,0,0,0,0,0,0,0,0,0,0,0,0,0,0,18,
scooby_state_403bd3|32|1 18,0,0,0,0,0,0,0,0,0,0,0,0,0,0,18,
scooby_state_403d10|44|1 18,0,0,0,0,0,0,0,0,0,0,0,0,0,0,18,
scooby_state_403be3|2|1 18,0,0,0,0,0,0,0,0,0,0,0,0,0,0,18,
scooby_state_418aae|63|1 18,0,0,0,0,0,0,0,0,0,0,0,0,0,0,18,
scooby_state_403be3|38|1 18,0,0,0,0,0,0,0,0,0,0,0,0,0,0,18,
scooby_state_403bd3|9|1 18,0,0,0,0,0,0,0,0,0,0,0,0,0,0,18,
scooby_state_403bd3|18|1 18,0,0,0,0,0,0,0,0,0,0,0,0,0,0,18,
scooby_state_403d10|61|1 18,0,0,0,0,0,0,0,0,0,0,0,0,0,0,18,
scooby_state_403ce7|42|1 18,0,0,0,0,0,0,0,0,0,0,0,0,0,0,18,
scooby_state_403bd3|29|1 18,0,0,0,0,0,0,0,0,0,0,0,0,0,0,18,
scooby_state_403bd3|52|1 18,0,0,0,0,0,0,0,0,0,0,0,0,0,0,18,
scooby_state_403ce7|50|1 18,0,0,0,0,0,0,0,0,0,0,0,0,0,0,18,
scooby_state_403d10|63|1 18,0,0,0,0,0,0,0,0,0,0,0,0,0,0,18,
scooby_state_403ce7|44|1 18,0,0,0,0,0,0,0,0,0,0,0,0,0,0,18,
scooby_state_403d10|30|1 18,0,0,0,0,0,0,0,0,0,0,0,0,0,0,18,
scooby_state_403ce7|45|1 18,0,0,0,0,0,0,0,0,0,0,0,0,0,0,18,
scooby_state_403d10|60|1 18,0,0,0,0,0,0,0,0,0,0,0,0,0,0,18,
scooby_state_403bd3|51|1 18,0,0,0,0,0,0,0,0,0,0,0,0,0,0,18,
scooby_state_403d10|41|1 18,0,0,0,0,0,0,0,0,0,0,0,0,0,0,18,
scooby_state_418aae|15|1 18,0,0,0,0,0,0,0,0,0,0,0,0,0,0,18,
scooby_state_403ce7|46|1 18,0,0,0,0,0,0,0,0,0,0,0,0,0,0,18,
scooby_state_418aae|54|1 18,0,0,0,0,0,0,0,0,0,0,0,0,0,0,18,
scooby_state_403d10|13|1 18,0,0,0,0,0,0,0,0,0,0,0,0,0,0,18,
scooby_state_403bd3|10|1 18,0,0,0,0,0,0,0,0,0,0,0,0,0,0,18,
scooby_state_403d10|38|1 18,0,0,0,0,0,0,0,0,0,0,0,0,0,0,18,
scooby_state_403d10|15|1 18,0,0,0,0,0,0,0,0,0,0,0,0,0,0,18,
scooby_state_403ce7|25|1 18,0,0,0,0,0,0,0,0,0,0,0,0,0,0,18,
scooby_state_418aae|1|1 18,0,0,0,0,0,0,0,0,0,0,0,0,0,0,18,
scooby_state_40fb2b|43|0 8,1,0,0,1,1,1,1,1,1,1,0,0,0,2,18,
scooby_state_403d10|48|1 18,0,0,0,0,0,0,0,0,0,0,0,0,0,0,18,
scooby_state_403d10|55|1 18,0,0,0,0,0,0,0,0,0,0,0,0,0,0,18,
scooby_state_403be3|46|1 18,0,0,0,0,0,0,0,0,0,0,0,0,0,0,18,
scooby_state_403bd3|26|1 18,0,0,0,0,0,0,0,0,0,0,0,0,0,0,18,
scooby_state_403d10|6|1 18,0,0,0,0,0,0,0,0,0,0,0,0,0,0,18,
scooby_state_403bd3|16|1 18,0,0,0,0,0,0,0,0,0,0,0,0,0,0,18,
scooby_state_403d10|53|1 18,0,0,0,0,0,0,0,0,0,0,0,0,0,0,18,
scooby_state_403ce7|9|1 18,0,0,0,0,0,0,0,0,0,0,0,0,0,0,18,
scooby_state_403bd3|20|1 18,0,0,0,0,0,0,0,0,0,0,0,0,0,0,18,
scooby_state_403bd3|21|1 18,0,0,0,0,0,0,0,0,0,0,0,0,0,0,18,
scooby_state_403bf7|18|0 17,0,0,0,0,0,0,0,0,0,0,0,0,0,0,17,
scooby_state_403d10|29|1 17,0,0,0,0,0,0,0,0,0,0,0,0,0,0,17,
scooby_state_403ce7|48|1 17,0,0,0,0,0,0,0,0,0,0,0,0,0,0,17,
scooby_state_403ce7|21|1 17,0,0,0,0,0,0,0,0,0,0,0,0,0,0,17,
scooby_state_403cef|62|1 1,0,0,0,0,0,0,16,0,0,0,0,0,0,0,17,
scooby_state_403d10|26|1 17,0,0,0,0,0,0,0,0,0,0,0,0,0,0,17,
scooby_state_403d10|36|1 17,0,0,0,0,0,0,0,0,0,0,0,0,0,0,17,
scooby_state_403ce7|35|1 17,0,0,0,0,0,0,0,0,0,0,0,0,0,0,17,
scooby_state_403d10|18|1 17,0,0,0,0,0,0,0,0,0,0,0,0,0,0,17,
scooby_state_403ce7|52|1 17,0,0,0,0,0,0,0,0,0,0,0,0,0,0,17,
scooby_state_403ce7|49|1 17,0,0,0,0,0,0,0,0,0,0,0,0,0,0,17,
scooby_state_403d10|21|1 17,0,0,0,0,0,0,0,0,0,0,0,0,0,0,17,
scooby_state_403d10|58|1 17,0,0,0,0,0,0,0,0,0,0,0,0,0,0,17,
scooby_state_403ce7|14|1 17,0,0,0,0,0,0,0,0,0,0,0,0,0,0,17,
scooby_state_403ce7|15|1 17,0,0,0,0,0,0,0,0,0,0,0,0,0,0,17,
scooby_state_403ce7|32|1 17,0,0,0,0,0,0,0,0,0,0,0,0,0,0,17,
scooby_state_403ce7|30|1 17,0,0,0,0,0,0,0,0,0,0,0,0,0,0,17,
scooby_state_403ce7|6|1 17,0,0,0,0,0,0,0,0,0,0,0,0,0,0,17,
scooby_state_403d10|43|1 17,0,0,0,0,0,0,0,0,0,0,0,0,0,0,17,
scooby_state_403d10|59|1 17,0,0,0,0,0,0,0,0,0,0,0,0,0,0,17,
scooby_state_403bfc|18|0 17,0,0,0,0,0,0,0,0,0,0,0,0,0,0,17,
scooby_state_403ce7|20|1 17,0,0,0,0,0,0,0,0,0,0,0,0,0,0,17,
scooby_state_403d10|28|1 17,0,0,0,0,0,0,0,0,0,0,0,0,0,0,17,
scooby_state_403d10|24|1 16,0,0,0,0,0,0,0,0,0,0,0,0,0,0,16,
scooby_state_40faf0|11|0 1,0,4,2,1,1,0,3,0,1,0,0,0,1,2,16,
scooby_state_403ce7|11|1 16,0,0,0,0,0,0,0,0,0,0,0,0,0,0,16,
scooby_state_403ce7|40|1 16,0,0,0,0,0,0,0,0,0,0,0,0,0,0,16,
scooby_state_418abe|13|1 16,0,0,0,0,0,0,0,0,0,0,0,0,0,0,16,
scooby_state_418aae|40|1 16,0,0,0,0,0,0,0,0,0,0,0,0,0,0,16,
scooby_state_403ce7|16|1 15,0,0,0,0,0,0,0,0,1,0,0,0,0,0,16,
scooby_state_403ce7|55|1 16,0,0,0,0,0,0,0,0,0,0,0,0,0,0,16,
scooby_state_403d10|4|1 16,0,0,0,0,0,0,0,0,0,0,0,0,0,0,16,
scooby_state_418ab6|61|1 16,0,0,0,0,0,0,0,0,0,0,0,0,0,0,16,
scooby_state_418ab6|12|1 16,0,0,0,0,0,0,0,0,0,0,0,0,0,0,16,
scooby_state_403ce7|1|0 16,0,0,0,0,0,0,0,0,0,0,0,0,0,0,16,
scooby_state_403be3|7|1 16,0,0,0,0,0,0,0,0,0,0,0,0,0,0,16,
scooby_state_403d10|33|1 15,0,0,0,0,0,0,0,0,1,0,0,0,0,0,16,
scooby_state_403ce7|63|1 16,0,0,0,0,0,0,0,0,0,0,0,0,0,0,16,
scooby_state_403bd3|17|1 16,0,0,0,0,0,0,0,0,0,0,0,0,0,0,16,
scooby_state_403bd3|1|1 16,0,0,0,0,0,0,0,0,0,0,0,0,0,0,16,
scooby_state_40fb2b|52|0 8,2,0,0,0,2,0,0,2,2,0,0,0,0,0,16,
scooby_state_403ce7|54|1 16,0,0,0,0,0,0,0,0,0,0,0,0,0,0,16,
scooby_state_403d10|23|1 16,0,0,0,0,0,0,0,0,0,0,0,0,0,0,16,
scooby_state_403be3|45|1 14,1,0,0,0,1,0,0,0,0,0,0,0,0,0,16,
scooby_state_403be3|44|1 16,0,0,0,0,0,0,0,0,0,0,0,0,0,0,16,
scooby_state_403ce7|10|1 16,0,0,0,0,0,0,0,0,0,0,0,0,0,0,16,
scooby_state_403d10|1|0 16,0,0,0,0,0,0,0,0,0,0,0,0,0,0,16,
scooby_state_403ce7|57|1 16,0,0,0,0,0,0,0,0,0,0,0,0,0,0,16,
scooby_state_418aae|46|1 16,0,0,0,0,0,0,0,0,0,0,0,0,0,0,16,
scooby_state_403ce7|61|1 16,0,0,0,0,0,0,0,0,0,0,0,0,0,0,16,
scooby_state_403ce7|43|1 16,0,0,0,0,0,0,0,0,0,0,0,0,0,0,16,
scooby_state_403d10|57|1 16,0,0,0,0,0,0,0,0,0,0,0,0,0,0,16,
scooby_state_418aae|14|1 16,0,0,0,0,0,0,0,0,0,0,0,0,0,0,16,
scooby_state_403bd3|47|1 16,0,0,0,0,0,0,0,0,0,0,0,0,0,0,16,
scooby_state_403ce7|39|1 16,0,0,0,0,0,0,0,0,0,0,0,0,0,0,16,
scooby_state_403bd3|6|1 16,0,0,0,0,0,0,0,0,0,0,0,0,0,0,16,
scooby_state_403be3|36|1 16,0,0,0,0,0,0,0,0,0,0,0,0,0,0,16,
scooby_state_403c3d|1|1 0,0,16,0,0,0,0,0,0,0,0,0,0,0,0,16,
scooby_state_418abe|62|1 16,0,0,0,0,0,0,0,0,0,0,0,0,0,0,16,
scooby_state_403d10|31|1 16,0,0,0,0,0,0,0,0,0,0,0,0,0,0,16,
scooby_state_40bf32|42|-1 12,1,1,0,0,0,0,2,0,0,0,0,0,0,0,16,
scooby_state_403bd3|24|1 16,0,0,0,0,0,0,0,0,0,0,0,0,0,0,16,
scooby_state_403ce7|41|1 16,0,0,0,0,0,0,0,0,0,0,0,0,0,0,16,
scooby_state_403bd3|38|1 16,0,0,0,0,0,0,0,0,0,0,0,0,0,0,16,
scooby_state_403ce7|3|1 16,0,0,0,0,0,0,0,0,0,0,0,0,0,0,16,
scooby_state_403ce7|38|1 16,0,0,0,0,0,0,0,0,0,0,0,0,0,0,16,
scooby_state_403be3|23|1 16,0,0,0,0,0,0,0,0,0,0,0,0,0,0,16,
scooby_state_403ce7|60|1 16,0,0,0,0,0,0,0,0,0,0,0,0,0,0,16,
scooby_state_403be3|22|1 16,0,0,0,0,0,0,0,0,0,0,0,0,0,0,16,
scooby_state_403ce7|53|1 16,0,0,0,0,0,0,0,0,0,0,0,0,0,0,16,
scooby_state_40bfd6|24|0 5,1,0,2,1,0,0,1,0,0,0,0,3,2,1,16,
scooby_state_403ce7|29|1 15,0,0,0,0,0,0,0,0,0,0,0,0,0,0,15,
scooby_state_4146a6|60|0 15,0,0,0,0,0,0,0,0,0,0,0,0,0,0,15,
scooby_state_403ce7|36|1 15,0,0,0,0,0,0,0,0,0,0,0,0,0,0,15,
scooby_state_403ce7|58|1 15,0,0,0,0,0,0,0,0,0,0,0,0,0,0,15,
scooby_state_403ce7|23|1 15,0,0,0,0,0,0,0,0,0,0,0,0,0,0,15,
scooby_state_403ce7|18|1 15,0,0,0,0,0,0,0,0,0,0,0,0,0,0,15,
scooby_state_403ce7|33|1 15,0,0,0,0,0,0,0,0,0,0,0,0,0,0,15,
scooby_state_418aae|2|1 15,0,0,0,0,0,0,0,0,0,0,0,0,0,0,15,
scooby_state_403ce7|27|1 15,0,0,0,0,0,0,0,0,0,0,0,0,0,0,15,
scooby_state_403cdf|62|1 1,0,14,0,0,0,0,0,0,0,0,0,0,0,0,15,
scooby_state_403ce7|26|1 15,0,0,0,0,0,0,0,0,0,0,0,0,0,0,15,
scooby_state_403ce7|59|1 15,0,0,0,0,0,0,0,0,0,0,0,0,0,0,15,
scooby_state_403ce7|28|1 15,0,0,0,0,0,0,0,0,0,0,0,0,0,0,15,
scooby_state_403d10|16|2 13,0,1,0,0,0,0,0,0,0,0,0,0,0,0,14,
scooby_state_403bd3|59|1 14,0,0,0,0,0,0,0,0,0,0,0,0,0,0,14,
scooby_state_403be3|8|1 14,0,0,0,0,0,0,0,0,0,0,0,0,0,0,14,
scooby_state_418abe|8|1 14,0,0,0,0,0,0,0,0,0,0,0,0,0,0,14,
scooby_state_418aae|42|1 14,0,0,0,0,0,0,0,0,0,0,0,0,0,0,14,
scooby_state_40faf0|34|0 1,1,4,1,1,1,1,0,1,1,0,0,0,1,1,14,
scooby_state_403ce7|24|1 14,0,0,0,0,0,0,0,0,0,0,0,0,0,0,14,
scooby_state_403ce7|46|2 13,0,0,0,0,0,0,1,0,0,0,0,0,0,0,14,
scooby_state_403bd3|4|1 14,0,0,0,0,0,0,0,0,0,0,0,0,0,0,14,
[...]
scooby_state_418aba|31|-10 0,0,0,0,0,1,0,0,0,0,0,0,0,0,0,1,
scooby_state_40bfd6|49|-2 0,0,0,0,1,0,0,0,0,0,0,0,0,0,0,1,
scooby_state_40fb2b|0|-25 1,0,0,0,0,0,0,0,0,0,0,0,0,0,0,1,
scooby_state_4146a6|3|-32 1,0,0,0,0,0,0,0,0,0,0,0,0,0,0,1,
scooby_state_4146a6|4|-29 1,0,0,0,0,0,0,0,0,0,0,0,0,0,0,1,
scooby_state_403cef|46|1 0,0,0,0,0,0,0,1,0,0,0,0,0,0,0,1,
scooby_state_40f553|12|2 1,0,0,0,0,0,0,0,0,0,0,0,0,0,0,1,
scooby_state_40f375|19|-23 1,0,0,0,0,0,0,0,0,0,0,0,0,0,0,1,
scooby_state_418aba|13|-43 1,0,0,0,0,0,0,0,0,0,0,0,0,0,0,1,
scooby_state_4146a6|31|-27 1,0,0,0,0,0,0,0,0,0,0,0,0,0,0,1,
scooby_state_418ac2|23|14 1,0,0,0,0,0,0,0,0,0,0,0,0,0,0,1,
scooby_state_403b81|46|1 1,0,0,0,0,0,0,0,0,0,0,0,0,0,0,1,
scooby_state_40bfdb|28|15 1,0,0,0,0,0,0,0,0,0,0,0,0,0,0,1,
scooby_state_40c056|7|-7 1,0,0,0,0,0,0,0,0,0,0,0,0,0,0,1,
scooby_state_4146a6|49|-4 1,0,0,0,0,0,0,0,0,0,0,0,0,0,0,1,
scooby_state_40fb27|13|0 1,0,0,0,0,0,0,0,0,0,0,0,0,0,0,1,
scooby_state_4146a6|44|-10 1,0,0,0,0,0,0,0,0,0,0,0,0,0,0,1,
scooby_state_418aba|32|-22 0,0,0,0,1,0,0,0,0,0,0,0,0,0,0,1,
scooby_state_40f375|24|-19 1,0,0,0,0,0,0,0,0,0,0,0,0,0,0,1,
scooby_state_4146a6|53|26 1,0,0,0,0,0,0,0,0,0,0,0,0,0,0,1,
scooby_state_418ab2|63|46 1,0,0,0,0,0,0,0,0,0,0,0,0,0,0,1,
scooby_state_418aba|60|-1 1,0,0,0,0,0,0,0,0,0,0,0,0,0,0,1,
scooby_state_4146a6|35|28 0,0,0,0,0,0,0,0,0,0,0,0,0,1,0,1,
scooby_state_418ac2|58|10 0,0,0,0,0,1,0,0,0,0,0,0,0,0,0,1,
scooby_state_41b28f|10|0 1,0,0,0,0,0,0,0,0,0,0,0,0,0,0,1,
scooby_state_4146a6|22|-37 1,0,0,0,0,0,0,0,0,0,0,0,0,0,0,1,
scooby_state_41e1c0|7|1 1,0,0,0,0,0,0,0,0,0,0,0,0,0,0,1,
scooby_state_40c056|14|3 0,0,0,0,1,0,0,0,0,0,0,0,0,0,0,1,
scooby_state_44dd82|54|1 1,0,0,0,0,0,0,0,0,0,0,0,0,0,0,1,
scooby_state_4146a6|40|16 1,0,0,0,0,0,0,0,0,0,0,0,0,0,0,1,
scooby_state_402901|11|-22 0,0,0,0,0,0,0,0,1,0,0,0,0,0,0,1,
scooby_state_418aba|54|-9 0,0,0,0,0,0,0,0,0,1,0,0,0,0,0,1,
scooby_state_40f370|44|-11 1,0,0,0,0,0,0,0,0,0,0,0,0,0,0,1,
scooby_state_40fb4a|56|-7 0,0,0,1,0,0,0,0,0,0,0,0,0,0,0,1,
scooby_state_4146a6|14|4 1,0,0,0,0,0,0,0,0,0,0,0,0,0,0,1,
scooby_state_4146a6|8|-17 1,0,0,0,0,0,0,0,0,0,0,0,0,0,0,1,
scooby_state_4146a6|11|-25 1,0,0,0,0,0,0,0,0,0,0,0,0,0,0,1,
scooby_state_418aba|5|4 1,0,0,0,0,0,0,0,0,0,0,0,0,0,0,1,
scooby_state_4146a6|0|-1 1,0,0,0,0,0,0,0,0,0,0,0,0,0,0,1,
scooby_state_4063f4|33|2 1,0,0,0,0,0,0,0,0,0,0,0,0,0,0,1,
scooby_state_40bfdb|37|-5 1,0,0,0,0,0,0,0,0,0,0,0,0,0,0,1,
scooby_state_4146a6|16|10 1,0,0,0,0,0,0,0,0,0,0,0,0,0,0,1,
scooby_state_4146a6|0|-27 1,0,0,0,0,0,0,0,0,0,0,0,0,0,0,1,
scooby_state_40f3e0|40|0 1,0,0,0,0,0,0,0,0,0,0,0,0,0,0,1,
scooby_state_40bfdb|59|46 1,0,0,0,0,0,0,0,0,0,0,0,0,0,0,1,
scooby_state_418aba|40|-9 0,0,0,0,0,0,0,0,0,0,0,0,0,0,1,1,
scooby_state_418aba|9|-25 1,0,0,0,0,0,0,0,0,0,0,0,0,0,0,1,
scooby_state_418aba|57|57 0,0,0,0,0,0,0,0,0,1,0,0,0,0,0,1,
scooby_state_4146a6|28|25 1,0,0,0,0,0,0,0,0,0,0,0,0,0,0,1,
scooby_state_40f529|1|1 1,0,0,0,0,0,0,0,0,0,0,0,0,0,0,1,
scooby_state_4146a6|7|-18 1,0,0,0,0,0,0,0,0,0,0,0,0,0,0,1,
scooby_state_418aba|32|-14 0,0,0,0,0,0,0,0,0,0,0,1,0,0,0,1,
scooby_state_40bf48|6|-6 1,0,0,0,0,0,0,0,0,0,0,0,0,0,0,1,
scooby_state_40bf48|13|-10 1,0,0,0,0,0,0,0,0,0,0,0,0,0,0,1,
scooby_state_418ac2|24|-22 1,0,0,0,0,0,0,0,0,0,0,0,0,0,0,1,
scooby_state_40f375|18|-26 0,0,0,0,1,0,0,0,0,0,0,0,0,0,0,1,
scooby_state_418aba|31|-28 1,0,0,0,0,0,0,0,0,0,0,0,0,0,0,1,
scooby_state_4146a6|30|-3 1,0,0,0,0,0,0,0,0,0,0,0,0,0,0,1,
scooby_state_4146a6|10|-21 1,0,0,0,0,0,0,0,0,0,0,0,0,0,0,1,
scooby_state_418ac2|29|21 1,0,0,0,0,0,0,0,0,0,0,0,0,0,0,1,
scooby_state_418ac2|62|27 0,0,0,0,1,0,0,0,0,0,0,0,0,0,0,1,
scooby_state_4146a6|14|-37 1,0,0,0,0,0,0,0,0,0,0,0,0,0,0,1,
scooby_state_4146a6|8|-28 1,0,0,0,0,0,0,0,0,0,0,0,0,0,0,1,
scooby_state_4146a6|6|6 1,0,0,0,0,0,0,0,0,0,0,0,0,0,0,1,
scooby_state_40bf48|2|-7 0,0,0,0,0,1,0,0,0,0,0,0,0,0,0,1,
scooby_state_40bf48|9|-13 1,0,0,0,0,0,0,0,0,0,0,0,0,0,0,1,
scooby_state_40f2bf|22|1 1,0,0,0,0,0,0,0,0,0,0,0,0,0,0,1,
scooby_state_4146a6|16|-6 1,0,0,0,0,0,0,0,0,0,0,0,0,0,0,1,
scooby_state_4146a6|39|39 1,0,0,0,0,0,0,0,0,0,0,0,0,0,0,1,
scooby_state_418aba|57|18 0,0,0,0,0,0,0,0,0,0,0,0,1,0,0,1,
scooby_state_418ac2|52|8 0,0,0,0,0,1,0,0,0,0,0,0,0,0,0,1,
scooby_state_4146a6|37|4 1,0,0,0,0,0,0,0,0,0,0,0,0,0,0,1,
scooby_state_4146a6|24|-39 1,0,0,0,0,0,0,0,0,0,0,0,0,0,0,1,
scooby_state_40f2c2|34|-26 1,0,0,0,0,0,0,0,0,0,0,0,0,0,0,1,
scooby_state_418ac2|40|-4 0,0,0,0,0,0,1,0,0,0,0,0,0,0,0,1,
scooby_state_40fb2b|29|-12 1,0,0,0,0,0,0,0,0,0,0,0,0,0,0,1,
scooby_state_40f370|15|-9 1,0,0,0,0,0,0,0,0,0,0,0,0,0,0,1,
scooby_state_4146a6|46|31 1,0,0,0,0,0,0,0,0,0,0,0,0,0,0,1,
scooby_state_418ac2|55|22 0,0,0,0,0,0,0,0,0,1,0,0,0,0,0,1,
scooby_state_411169|12|8 1,0,0,0,0,0,0,0,0,0,0,0,0,0,0,1,
scooby_state_418ab2|42|-18 1,0,0,0,0,0,0,0,0,0,0,0,0,0,0,1,
scooby_state_40bf39|9|-52 1,0,0,0,0,0,0,0,0,0,0,0,0,0,0,1,
scooby_state_40bf41|22|-3 1,0,0,0,0,0,0,0,0,0,0,0,0,0,0,1,
scooby_state_40f375|26|-10 1,0,0,0,0,0,0,0,0,0,0,0,0,0,0,1,
scooby_state_418ac2|13|-24 0,0,0,0,0,0,1,0,0,0,0,0,0,0,0,1,
scooby_state_4146a6|56|48 1,0,0,0,0,0,0,0,0,0,0,0,0,0,0,1,
scooby_state_4146a6|63|46 1,0,0,0,0,0,0,0,0,0,0,0,0,0,0,1,
scooby_state_40bf8c|52|-3 1,0,0,0,0,0,0,0,0,0,0,0,0,0,0,1,
scooby_state_4146a6|13|-16 1,0,0,0,0,0,0,0,0,0,0,0,0,0,0,1,
scooby_state_40ba20|18|-33 1,0,0,0,0,0,0,0,0,0,0,0,0,0,0,1,
scooby_state_4146a6|10|-36 1,0,0,0,0,0,0,0,0,0,0,0,0,0,0,1,
scooby_state_40fb27|49|1 1,0,0,0,0,0,0,0,0,0,0,0,0,0,0,1,
scooby_state_40bfdb|59|0 1,0,0,0,0,0,0,0,0,0,0,0,0,0,0,1,
scooby_state_4146a6|59|1 1,0,0,0,0,0,0,0,0,0,0,0,0,0,0,1,
scooby_state_4146a6|12|-16 1,0,0,0,0,0,0,0,0,0,0,0,0,0,0,1,
scooby_state_418ac2|42|37 0,0,0,0,0,1,0,0,0,0,0,0,0,0,0,1,
scooby_state_41e626|24|4 1,0,0,0,0,0,0,0,0,0,0,0,0,0,0,1,
scooby_state_418aba|3|-29 0,0,0,1,0,0,0,0,0,0,0,0,0,0,0,1,
scooby_state_4146a6|34|11 1,0,0,0,0,0,0,0,0,0,0,0,0,0,0,1,
scooby_state_4146a6|23|-34 1,0,0,0,0,0,0,0,0,0,0,0,0,0,0,1,
scooby_state_40fb2b|22|0 1,0,0,0,0,0,0,0,0,0,0,0,0,0,0,1,
scooby_state_40bfdb|61|59 1,0,0,0,0,0,0,0,0,0,0,0,0,0,0,1,
scooby_state_418ac2|17|10 0,0,0,0,0,0,0,1,0,0,0,0,0,0,0,1,
scooby_state_4146a6|55|10 1,0,0,0,0,0,0,0,0,0,0,0,0,0,0,1,
scooby_state_4146a6|24|13 1,0,0,0,0,0,0,0,0,0,0,0,0,0,0,1,
scooby_state_40f370|24|-18 1,0,0,0,0,0,0,0,0,0,0,0,0,0,0,1,
scooby_state_40fb27|62|0 1,0,0,0,0,0,0,0,0,0,0,0,0,0,0,1,
scooby_state_41b200|8|0 1,0,0,0,0,0,0,0,0,0,0,0,0,0,0,1,
scooby_state_40fab0|42|0 1,0,0,0,0,0,0,0,0,0,0,0,0,0,0,1,
scooby_state_418ab2|14|-3 0,0,1,0,0,0,0,0,0,0,0,0,0,0,0,1,
scooby_state_4146a6|48|32 1,0,0,0,0,0,0,0,0,0,0,0,0,0,0,1,
scooby_state_4146a6|61|27 1,0,0,0,0,0,0,0,0,0,0,0,0,0,0,1,
scooby_state_40bf41|26|8 1,0,0,0,0,0,0,0,0,0,0,0,0,0,0,1,
scooby_state_40bfdb|11|-46 1,0,0,0,0,0,0,0,0,0,0,0,0,0,0,1,
scooby_state_40bf4b|44|-9 1,0,0,0,0,0,0,0,0,0,0,0,0,0,0,1,
scooby_state_40bf48|35|0 0,1,0,0,0,0,0,0,0,0,0,0,0,0,0,1,
scooby_state_40bf41|18|-5 1,0,0,0,0,0,0,0,0,0,0,0,0,0,0,1,
scooby_state_40bf48|63|29 1,0,0,0,0,0,0,0,0,0,0,0,0,0,0,1,
scooby_state_418ac2|57|51 1,0,0,0,0,0,0,0,0,0,0,0,0,0,0,1,
scooby_state_4146a6|47|35 1,0,0,0,0,0,0,0,0,0,0,0,0,0,0,1,
scooby_state_40bf48|8|-53 0,1,0,0,0,0,0,0,0,0,0,0,0,0,0,1,
scooby_state_40f370|45|-10 1,0,0,0,0,0,0,0,0,0,0,0,0,0,0,1,
scooby_state_40bf48|5|-18 1,0,0,0,0,0,0,0,0,0,0,0,0,0,0,1,
scooby_state_40f375|16|-7 0,0,0,0,0,0,0,0,0,0,0,0,0,0,1,1,
scooby_state_418ac2|20|5 1,0,0,0,0,0,0,0,0,0,0,0,0,0,0,1,
scooby_state_4146a6|9|-28 1,0,0,0,0,0,0,0,0,0,0,0,0,0,0,1,
scooby_state_40bf41|27|23 1,0,0,0,0,0,0,0,0,0,0,0,0,0,0,1,
scooby_state_4146a6|0|-16 1,0,0,0,0,0,0,0,0,0,0,0,0,0,0,1,
scooby_state_4146a6|58|39 1,0,0,0,0,0,0,0,0,0,0,0,0,0,0,1,
scooby_state_418ac2|2|-37 0,0,0,0,0,0,0,0,0,0,0,1,0,0,0,1,
scooby_state_418ac2|1|-62 1,0,0,0,0,0,0,0,0,0,0,0,0,0,0,1,
scooby_state_4146a6|52|5 1,0,0,0,0,0,0,0,0,0,0,0,0,0,0,1,
scooby_state_40f553|24|0 1,0,0,0,0,0,0,0,0,0,0,0,0,0,0,1,
scooby_state_418aba|3|-52 0,0,0,0,0,0,0,0,0,0,0,0,0,0,1,1,
scooby_state_418ac2|2|-44 0,0,1,0,0,0,0,0,0,0,0,0,0,0,0,1,
scooby_state_418aba|48|42 1,0,0,0,0,0,0,0,0,0,0,0,0,0,0,1,
scooby_state_40c056|2|-2 1,0,0,0,0,0,0,0,0,0,0,0,0,0,0,1,
scooby_state_40f370|42|-16 1,0,0,0,0,0,0,0,0,0,0,0,0,0,0,1,
scooby_state_40fb27|33|1 1,0,0,0,0,0,0,0,0,0,0,0,0,0,0,1,
scooby_state_418ac2|47|47 1,0,0,0,0,0,0,0,0,0,0,0,0,0,0,1,
scooby_state_40fb2b|4|-26 1,0,0,0,0,0,0,0,0,0,0,0,0,0,0,1,
scooby_state_4146a6|46|4 1,0,0,0,0,0,0,0,0,0,0,0,0,0,0,1,
scooby_state_40bf4b|59|16 1,0,0,0,0,0,0,0,0,0,0,0,0,0,0,1,
scooby_state_41b080|2|0 0,1,0,0,0,0,0,0,0,0,0,0,0,0,0,1,
scooby_state_40f370|41|-11 1,0,0,0,0,0,0,0,0,0,0,0,0,0,0,1,
scooby_state_40fb27|48|1 1,0,0,0,0,0,0,0,0,0,0,0,0,0,0,1,
scooby_state_4146a6|50|-7 0,0,0,0,0,0,0,0,0,0,0,0,1,0,0,1,
scooby_state_4146a6|48|-14 1,0,0,0,0,0,0,0,0,0,0,0,0,0,0,1,
scooby_state_40f2c2|31|12 1,0,0,0,0,0,0,0,0,0,0,0,0,0,0,1,
scooby_state_418ac2|32|-4 0,0,0,0,0,0,0,0,0,0,0,0,0,0,1,1,
scooby_state_40bfd6|3|0 0,0,0,1,0,0,0,0,0,0,0,0,0,0,0,1,
scooby_state_40f529|9|-26 1,0,0,0,0,0,0,0,0,0,0,0,0,0,0,1,
scooby_state_418aba|2|-42 0,0,0,0,0,0,0,0,0,0,0,0,0,0,1,1,
scooby_state_40bf41|19|2 1,0,0,0,0,0,0,0,0,0,0,0,0,0,0,1,
scooby_state_4146a6|55|16 1,0,0,0,0,0,0,0,0,0,0,0,0,0,0,1,
scooby_state_4146a6|61|50 1,0,0,0,0,0,0,0,0,0,0,0,0,0,0,1,
scooby_state_4146a6|19|-38 1,0,0,0,0,0,0,0,0,0,0,0,0,0,0,1,
scooby_state_4146a6|2|-6 1,0,0,0,0,0,0,0,0,0,0,0,0,0,0,1,
scooby_state_40f2c2|3|-13 1,0,0,0,0,0,0,0,0,0,0,0,0,0,0,1,
scooby_state_403bf7|16|5 1,0,0,0,0,0,0,0,0,0,0,0,0,0,0,1,
scooby_state_418aba|8|-10 0,1,0,0,0,0,0,0,0,0,0,0,0,0,0,1,
scooby_state_418ac2|52|36 0,0,0,0,0,0,0,0,0,0,0,0,0,1,0,1,
scooby_state_4146a6|43|36 0,0,0,0,0,0,0,0,0,0,0,0,0,1,0,1,
scooby_state_4015c1|23|1 0,0,1,0,0,0,0,0,0,0,0,0,0,0,0,1,
scooby_state_4146a6|40|10 1,0,0,0,0,0,0,0,0,0,0,0,0,0,0,1,
scooby_state_40f2bf|35|1 1,0,0,0,0,0,0,0,0,0,0,0,0,0,0,1,
scooby_state_40f2c2|4|-59 0,0,1,0,0,0,0,0,0,0,0,0,0,0,0,1,
scooby_state_40f2c2|43|41 0,0,1,0,0,0,0,0,0,0,0,0,0,0,0,1,
scooby_state_4146a6|31|11 1,0,0,0,0,0,0,0,0,0,0,0,0,0,0,1,
scooby_state_418ac2|7|-43 0,0,0,1,0,0,0,0,0,0,0,0,0,0,0,1,
scooby_state_4146a6|28|-20 1,0,0,0,0,0,0,0,0,0,0,0,0,0,0,1,
scooby_state_4146a6|43|4 1,0,0,0,0,0,0,0,0,0,0,0,0,0,0,1,
scooby_state_40f370|8|-14 1,0,0,0,0,0,0,0,0,0,0,0,0,0,0,1,
scooby_state_40f2c2|11|-25 1,0,0,0,0,0,0,0,0,0,0,0,0,0,0,1,
scooby_state_418aba|28|-26 1,0,0,0,0,0,0,0,0,0,0,0,0,0,0,1,
scooby_state_418aba|48|10 1,0,0,0,0,0,0,0,0,0,0,0,0,0,0,1,
scooby_state_4146a6|2|-29 0,0,0,0,0,0,0,1,0,0,0,0,0,0,0,1,
scooby_state_418ac2|31|20 1,0,0,0,0,0,0,0,0,0,0,0,0,0,0,1,
scooby_state_418ab2|32|-12 0,0,0,0,0,0,0,1,0,0,0,0,0,0,0,1,
scooby_state_418aba|21|-22 0,0,0,0,0,0,1,0,0,0,0,0,0,0,0,1,
scooby_state_4146a6|3|-38 1,0,0,0,0,0,0,0,0,0,0,0,0,0,0,1,
scooby_state_40f2c2|48|7 0,0,1,0,0,0,0,0,0,0,0,0,0,0,0,1,
scooby_state_40f2c2|9|-12 1,0,0,0,0,0,0,0,0,0,0,0,0,0,0,1,
scooby_state_418ab2|1|-19 1,0,0,0,0,0,0,0,0,0,0,0,0,0,0,1,
scooby_state_418ab2|61|18 1,0,0,0,0,0,0,0,0,0,0,0,0,0,0,1,
scooby_state_41e140|5|0 1,0,0,0,0,0,0,0,0,0,0,0,0,0,0,1,
scooby_state_418ac2|18|-13 0,0,1,0,0,0,0,0,0,0,0,0,0,0,0,1,
scooby_state_4146a6|52|34 1,0,0,0,0,0,0,0,0,0,0,0,0,0,0,1,
scooby_state_40f375|38|4 1,0,0,0,0,0,0,0,0,0,0,0,0,0,0,1,
scooby_state_4018d0|35|8 1,0,0,0,0,0,0,0,0,0,0,0,0,0,0,1,
scooby_state_418aba|63|32 1,0,0,0,0,0,0,0,0,0,0,0,0,0,0,1,
scooby_state_40bf4b|57|-5 1,0,0,0,0,0,0,0,0,0,0,0,0,0,0,1,
scooby_state_4146a6|62|15 1,0,0,0,0,0,0,0,0,0,0,0,0,0,0,1,
scooby_state_4063f4|1|-58 1,0,0,0,0,0,0,0,0,0,0,0,0,0,0,1,
scooby_state_418aba|13|-46 1,0,0,0,0,0,0,0,0,0,0,0,0,0,0,1,
scooby_state_40bf48|15|-36 1,0,0,0,0,0,0,0,0,0,0,0,0,0,0,1,
scooby_state_40f375|2|-50 0,0,0,0,0,0,0,0,0,0,0,0,0,0,1,1,
scooby_state_4146a6|0|-17 1,0,0,0,0,0,0,0,0,0,0,0,0,0,0,1,
scooby_state_4146a6|4|-10 1,0,0,0,0,0,0,0,0,0,0,0,0,0,0,1,
scooby_state_4146a6|60|13 1,0,0,0,0,0,0,0,0,0,0,0,0,0,0,1,
scooby_state_418ac2|3|-21 1,0,0,0,0,0,0,0,0,0,0,0,0,0,0,1,
scooby_state_40f2c8|21|-1 1,0,0,0,0,0,0,0,0,0,0,0,0,0,0,1,
scooby_state_418aba|13|-16 1,0,0,0,0,0,0,0,0,0,0,0,0,0,0,1,
scooby_state_40f2c2|34|0 0,0,1,0,0,0,0,0,0,0,0,0,0,0,0,1,
scooby_state_40c12e|61|43 1,0,0,0,0,0,0,0,0,0,0,0,0,0,0,1,
scooby_state_418aba|18|-30 1,0,0,0,0,0,0,0,0,0,0,0,0,0,0,1,
scooby_state_4146a6|26|-33 1,0,0,0,0,0,0,0,0,0,0,0,0,0,0,1,
scooby_state_403bf7|56|2 1,0,0,0,0,0,0,0,0,0,0,0,0,0,0,1,
scooby_state_44c180|6|1 1,0,0,0,0,0,0,0,0,0,0,0,0,0,0,1,
scooby_state_418ac2|33|-22 1,0,0,0,0,0,0,0,0,0,0,0,0,0,0,1,
scooby_state_418ac2|41|41 1,0,0,0,0,0,0,0,0,0,0,0,0,0,0,1,
scooby_state_40f2bf|53|3 1,0,0,0,0,0,0,0,0,0,0,0,0,0,0,1,
scooby_state_40f375|8|-38 1,0,0,0,0,0,0,0,0,0,0,0,0,0,0,1,
scooby_state_418ac2|49|10 0,0,0,0,0,0,0,1,0,0,0,0,0,0,0,1,
scooby_state_4146a6|54|-3 1,0,0,0,0,0,0,0,0,0,0,0,0,0,0,1,
scooby_state_418ac2|33|32 1,0,0,0,0,0,0,0,0,0,0,0,0,0,0,1,
scooby_state_40f370|5|-10 1,0,0,0,0,0,0,0,0,0,0,0,0,0,0,1,
scooby_state_418ac2|29|-7 0,0,1,0,0,0,0,0,0,0,0,0,0,0,0,1,

scooby_action_0_deg_dist 0,947,0,0,0,0,0,0,0,0,0,0,0,0,0,0,
scooby_action_12_deg_dist 0,578,3,0,0,0,0,0,0,0,0,0,0,0,0,0,
scooby_action_32_deg_dist 0,464,0,0,0,0,0,0,0,0,0,0,0,0,0,0,
scooby_action_3_deg_dist 0,802,17,0,15,0,51,0,0,0,0,0,0,0,0,0,
scooby_action_5_deg_dist 0,1229,144,0,172,0,141,0,0,0,0,0,0,0,0,0,
scooby_action_1_deg_dist 0,19865,9074,0,19163,0,89775,0,0,0,0,0,0,0,0,0,
scooby_action_30_deg_dist 0,510,0,0,0,0,0,0,0,0,0,0,0,0,0,0,
scooby_action_4_deg_dist 0,2534,407,0,649,0,1022,0,0,0,0,0,0,0,0,0,
scooby_action_-3_deg_dist 0,592,12,0,0,0,0,0,0,0,0,0,0,0,0,0,
scooby_action_10_deg_dist 0,628,2,0,0,0,0,0,0,0,0,0,0,0,0,0,
scooby_action_-1_deg_dist 0,643,4,0,0,0,0,0,0,0,0,0,0,0,0,0,
scooby_action_23_deg_dist 0,505,2,0,0,0,0,0,0,0,0,0,0,0,0,0,
scooby_action_-6_deg_dist 0,680,2,0,0,0,0,0,0,0,0,0,0,0,0,0,
scooby_action_11_deg_dist 0,626,1,0,0,0,0,0,0,0,0,0,0,0,0,0,
scooby_action_22_deg_dist 0,1141,190,0,438,0,800,0,0,0,0,0,0,0,0,0,

scooby_track_called 153828
scooby_track_same_address 3619
scooby_track_evict 149953

scooby_reward_demand_called 153828
scooby_reward_demand_pt_not_found 40778
scooby_reward_demand_pt_found 113050
scooby_reward_demand_pt_found_total 113050
scooby_reward_demand_has_reward 7
scooby_reward_train_called 32555
scooby_reward_assign_reward_called 150204
scooby_reward_no_pref 947
scooby_reward_incorrect 31608
scooby_reward_correct_untimely 97724
scooby_reward_correct_timely 15319
scooby_reward_out_of_bounds 4606
scooby_reward_tracker_hit 0

scooby_reward_none_low_bw 947
scooby_reward_none_high_bw 0
scooby_reward_incorrect_low_bw 31608
scooby_reward_incorrect_high_bw 0
scooby_reward_correct_untimely_low_bw 97724
scooby_reward_correct_untimely_high_bw 0
scooby_reward_correct_timely_low_bw 15319
scooby_reward_correct_timely_high_bw 0
scooby_reward_out_of_bounds_low_bw 4606
scooby_reward_out_of_bounds_high_bw 0
scooby_reward_tracker_hit_low_bw 0
scooby_reward_tracker_hit_high_bw 0

scooby_reward_1 0,23162,95882,13470,2203,0,
scooby_reward_3 0,634,114,38,54,0,
scooby_reward_4 0,2351,1407,485,276,0,
scooby_reward_5 0,1336,82,110,122,0,
scooby_reward_10 0,459,21,24,91,0,
scooby_reward_11 0,430,29,18,109,0,
scooby_reward_12 0,436,12,11,98,0,
scooby_reward_22 0,483,22,1119,907,0,
scooby_reward_23 0,275,23,9,180,0,
scooby_reward_30 0,239,9,13,236,0,
scooby_reward_32 0,190,6,9,249,0,
scooby_reward_-1 0,538,41,10,8,0,
scooby_reward_-3 0,517,31,0,25,0,
scooby_reward_-6 0,558,45,3,48,0,
scooby_reward_0 947,0,0,0,0,0,

scooby_train_called 149952
scooby_train_compute_reward 32555

scooby_register_fill_called 140115
scooby_register_fill_set 26252
scooby_register_fill_set_total 26252

scooby_register_prefetch_hit_called 412559
scooby_register_prefetch_hit_set 118437
scooby_register_prefetch_hit_set_total 118437

scooby_pref_issue_scooby 617814

learning_engine_featurewise.action.called 153828
learning_engine_featurewise.action.explore 289
learning_engine_featurewise.action.exploit 153539
learning_engine_featurewise.action.fallback 0
learning_engine_featurewise.action.dyn_fallback_saved_bw 0
learning_engine_featurewise.action.dyn_fallback_saved_bw_acc 3872
learning_engine_featurewise.action.index_1_explored 19
learning_engine_featurewise.action.index_1_exploited 137858
learning_engine_featurewise.action.index_3_explored 25
learning_engine_featurewise.action.index_3_exploited 860
learning_engine_featurewise.action.index_4_explored 17
learning_engine_featurewise.action.index_4_exploited 4595
learning_engine_featurewise.action.index_5_explored 17
learning_engine_featurewise.action.index_5_exploited 1669
learning_engine_featurewise.action.index_10_explored 26
learning_engine_featurewise.action.index_10_exploited 604
learning_engine_featurewise.action.index_11_explored 21
learning_engine_featurewise.action.index_11_exploited 606
learning_engine_featurewise.action.index_12_explored 19
learning_engine_featurewise.action.index_12_exploited 562
learning_engine_featurewise.action.index_22_explored 21
learning_engine_featurewise.action.index_22_exploited 2548
learning_engine_featurewise.action.index_23_explored 19
learning_engine_featurewise.action.index_23_exploited 488
learning_engine_featurewise.action.index_30_explored 25
learning_engine_featurewise.action.index_30_exploited 485
learning_engine_featurewise.action.index_32_explored 17
learning_engine_featurewise.action.index_32_exploited 447
learning_engine_featurewise.action.index_-1_explored 18
learning_engine_featurewise.action.index_-1_exploited 629
learning_engine_featurewise.action.index_-3_explored 13
learning_engine_featurewise.action.index_-3_exploited 591
learning_engine_featurewise.action.index_-6_explored 14
learning_engine_featurewise.action.index_-6_exploited 668
learning_engine_featurewise.action.index_0_explored 18
learning_engine_featurewise.action.index_0_exploited 929
learning_engine_featurewise.learn.called 149952
learning_engine_featurewise.learn.su_skip_PC 0
learning_engine_featurewise.learn.su_skip_PC_Delta 0

learning_engine_featurewise.q_value_histogram.bucket_0 0
learning_engine_featurewise.q_value_histogram.bucket_1 0
learning_engine_featurewise.q_value_histogram.bucket_2 0
learning_engine_featurewise.q_value_histogram.bucket_3 6518
learning_engine_featurewise.q_value_histogram.bucket_4 14552
learning_engine_featurewise.q_value_histogram.bucket_5 16457
learning_engine_featurewise.q_value_histogram.bucket_6 116012
learning_engine_featurewise.q_value_histogram.bucket_7 0

learning_engine_featurewise.consensus.total 153539
learning_engine_featurewise.consensus.feature_align_PC 138389
learning_engine_featurewise.consensus.feature_align_PC_ratio 0.90
learning_engine_featurewise.consensus.feature_align_PC_Delta 147043
learning_engine_featurewise.consensus.feature_align_PC_Delta_ratio 0.96
learning_engine_featurewise.consensus.feature_align_all 131893
learning_engine_featurewise.consensus.feature_align_all_ratio 0.86

learning_engine_featurewise.feature_PC_min_weight 1000000.00000000
learning_engine_featurewise.feature_PC_max_weight 0.00000000
learning_engine_featurewise.feature_PC_Delta_min_weight 1000000.00000000
learning_engine_featurewise.feature_PC_Delta_max_weight 0.00000000
unique_pcs 495
unique_pages 2215
unique_trigger_pcs 233
total_bitmaps_seen 0
unique_bitmaps_seen 0

scooby_bw_epochs 36404
scooby_bw_level_0 15461
scooby_bw_level_1 12807
scooby_bw_level_2 7373
scooby_bw_level_3 763

scooby_ipc_epochs 0
scooby_ipc_level_0 0
scooby_ipc_level_1 0
scooby_ipc_level_2 0
scooby_ipc_level_3 0

scooby_cache_acc_epochs 8702
scooby_cache_acc_level_0 282
scooby_cache_acc_level_1 156
scooby_cache_acc_level_2 124
scooby_cache_acc_level_3 188
scooby_cache_acc_level_4 407
scooby_cache_acc_level_5 753
scooby_cache_acc_level_6 1104
scooby_cache_acc_level_7 1030
scooby_cache_acc_level_8 955
scooby_cache_acc_level_9 3703

Channel_0_RQ_row_buffer_hit 79508
Channel_0_RQ_row_buffer_miss 33004
Channel_0_WQ_row_buffer_hit 76
Channel_0_WQ_row_buffer_miss 164
Channel_0_WQ_full 0
Channel_0_dbus_congested 30714

avg_congested_cycle 9

DRAM_bw_pochs 36404
DRAM_bw_level_0 15461
DRAM_bw_level_1 12807
DRAM_bw_level_2 7373
DRAM_bw_level_3 763
