Original cmd-> /cluster/home/vlnitu/CA-Lab4-24-vlnitu/Pythia/bin/perceptron-no-multi-no-ship-1core --warmup_instructions=1000000 --simulation_instructions=10000000 --l2c_prefetcher_types=scooby --config=/cluster/home/vlnitu/CA-Lab4-24-vlnitu/Pythia/config/pythia.ini --mail-type=BEGIN,END  -traces /cluster/home/vlnitu/CA-Lab4-24-vlnitu/Pythia/traces/483.xalancbmk-127B.champsimtrace.xz
*************************************************
   ChampSim Multicore Out-of-Order Simulator
   Last compiled: Nov 19 2024 20:10:11
*************************************************
parsing config file: /cluster/home/vlnitu/CA-Lab4-24-vlnitu/Pythia/config/pythia.ini
unable to parse section: , name: mail-type, value: BEGIN,END

trace_0 /cluster/home/vlnitu/CA-Lab4-24-vlnitu/Pythia/traces/483.xalancbmk-127B.champsimtrace.xz
adding L2C_PREFETCHER: Scooby
Initialize SHIP state
warmup_instructions 1000000
simulation_instructions 10000000
champsim_seed 220
measure_ipc 0
measure_ipc_epoch 1000
measure_dram_bw 1
measure_dram_bw_epoch 256
measure_cache_acc 1
measure_cache_acc_epoch 1024
l1d_perfect 0
l2c_perfect 0
llc_perfect 0
l1d_semi_perfect 0
l2c_semi_perfect 0
llc_semi_perfect 0
semi_perfect_cache_page_buffer_size 64

num_cpus 1
cpu_freq 4000
dram_io_freq 2400
page_size 4096
block_size 64
max_read_per_cycle 8
max_fill_per_cycle 1
dram_channels 1
log2_dram_channels 0
dram_ranks 1
dram_banks 8
dram_rows 65536
dram_columns 128
dram_row_size 8
dram_size 4096
dram_pages 1048576

fetch_width 6
decode_width 6
exec_width 4
lq_width 2
sq_width 2
retire_width 4
scheduler_size 128
branch_mispredict_penalty 20
rob_size 256
lq_size 72
sq_size 56
num_instr_destinations_sparc 4
num_instr_destinations 2
num_instr_sources 4

itlb_set 16
itlb_way 8
itlb_rq_size 16
itlb_wq_size 16
itlb_pq_size 0
itlb_mshr_size 8
itlb_latency 1

dtlb_set 16
dtlb_way 4
dtlb_rq_size 16
dtlb_wq_size 16
dtlb_pq_size 0
dtlb_mshr_size 8
dtlb_latency 1

stlb_set 128
stlb_way 12
stlb_rq_size 32
stlb_wq_size 32
stlb_pq_size 0
stlb_mshr_size 16
stlb_latency 8

l1i_size 32
l1i_set 64
l1i_way 8
l1i_rq_size 64
l1i_wq_size 64
l1i_pq_size 8
l1i_mshr_size 8
l1i_latency 1

l1d_size 32
l1d_set 64
l1d_way 8
l1d_rq_size 64
l1d_wq_size 64
l1d_pq_size 8
l1d_mshr_size 16
l1d_latency 4

l2c_size 256
l2c_set 512
l2c_way 8
l2c_rq_size 32
l2c_wq_size 32
l2c_pq_size 32
l2c_mshr_size 32
l2c_latency 10

llc_size 2048
llc_set 2048
llc_way 16
llc_rq_size 32
llc_wq_size 32
llc_pq_size 32
llc_mshr_size 64
llc_latency 20

dram_channel_width 8
dram_wq_size 64
dram_rq_size 64
tRP 15
tRCD 15
tCAS 12.5
dram_dbus_turn_around_time 30
dram_write_high_wm 56
dram_write_low_wm 48
min_dram_writes_per_switch 16
dram_mtps 2400
dram_dbus_return_time 13

scooby_alpha 0.0065088
scooby_gamma 0.556301
scooby_epsilon 0.00182284
scooby_state_num_bits 10
scooby_max_states 1024
scooby_seed 200
scooby_policy EGreedy
scooby_learning_type SARSA
scooby_actions 1,3,4,5,10,11,12,22,23,30,32,-1,-3,-6,0,
scooby_max_actions 15
scooby_pt_size 256
scooby_st_size 64
scooby_max_pcs 5
scooby_max_offsets 5
scooby_max_deltas 5
scooby_reward_none -4
scooby_reward_incorrect -8
scooby_reward_correct_untimely 12
scooby_reward_correct_timely 20
scooby_brain_zero_init 0
scooby_enable_reward_all 0
scooby_enable_track_multiple 0
scooby_enable_reward_out_of_bounds 1
scooby_reward_out_of_bounds -12
scooby_state_type 1
scooby_state_hash_type 11
scooby_access_debug 0
scooby_print_access_debug 0
scooby_print_access_debug_pc deadbeef
scooby_print_access_debug_pc_count 0
scooby_print_trace 0
scooby_enable_state_action_stats 1
scooby_enable_reward_tracker_hit 0
scooby_reward_tracker_hit -2
scooby_enable_featurewise_engine 1
scooby_pref_degree 1
scooby_enable_dyn_degree 1
scooby_max_to_avg_q_thresholds 0.5,1,2,
scooby_dyn_degrees 1,2,4,4,
scooby_multi_deg_select_type 2
scooby_last_pref_offset_conf_thresholds 1,3,8,
scooby_dyn_degrees_type2 1,2,4,6,
scooby_action_tracker_size 2
scooby_high_bw_thresh 4
scooby_enable_hbw_reward 1
scooby_reward_hbw_correct_timely 20
scooby_reward_hbw_correct_untimely 12
scooby_reward_hbw_incorrect -14
scooby_reward_hbw_none -2
scooby_reward_hbw_out_of_bounds -12
scooby_reward_hbw_tracker_hit -2
scooby_last_pref_offset_conf_thresholds_hbw 1,3,8,
scooby_dyn_degrees_type2_hbw 1,2,4,6,

le_enable_trace 0
le_trace_interval 0
le_trace_file_name 
le_trace_state 0
le_enable_score_plot 0
le_plot_file_name 
le_plot_actions 
le_enable_action_trace 0
le_action_trace_interval 0
le_action_trace_name 
le_enable_action_plot 0

le_featurewise_active_features PC, PC_Delta
le_featurewise_num_tilings 3,3,
le_featurewise_num_tiles 128,128,
le_featurewise_hash_types 2,2,
le_featurewise_enable_tiling_offset 1,1,
le_featurewise_max_q_thresh 0.5
le_featurewise_enable_action_fallback 1
le_featurewise_feature_weights 1,1,
le_featurewise_enable_dynamic_weight 0
le_featurewise_weight_gradient 0.001
le_featurewise_disable_adjust_weight_all_features_align 1
le_featurewise_selective_update 0
le_featurewise_pooling_type 2
le_featurewise_enable_dyn_action_fallback 1
le_featurewise_bw_acc_check_level 1
le_featurewise_acc_thresh 2
le_featurewise_enable_trace 0
le_featurewise_trace_feature_type 0
le_featurewise_trace_feature 
le_featurewise_trace_interval 0
le_featurewise_trace_record_count 0
le_featurewise_trace_file_name 
le_featurewise_enable_score_plot 0
le_featurewise_plot_actions 
le_featurewise_plot_file_name 


Heartbeat CPU  0 instructions:    1000003 cycles:     522405 heartbeat IPC: 1.91423 cumulative IPC: 1.91423 (Simulation time: 0 hr 0 min 1 sec) 

Warmup complete CPU  0 instructions:    1000003 cycles:     522405 (Simulation time: 0 hr 0 min 1 sec) 

Heartbeat CPU  0 instructions:    2000001 cycles:    3550825 heartbeat IPC: 0.33020 cumulative IPC: 0.33020 (Simulation time: 0 hr 0 min 3 sec) 
Heartbeat CPU  0 instructions:    3000000 cycles:    6286692 heartbeat IPC: 0.36551 cumulative IPC: 0.34696 (Simulation time: 0 hr 0 min 6 sec) 
Heartbeat CPU  0 instructions:    4000000 cycles:    8915836 heartbeat IPC: 0.38035 cumulative IPC: 0.35742 (Simulation time: 0 hr 0 min 8 sec) 
Heartbeat CPU  0 instructions:    5000002 cycles:   11214284 heartbeat IPC: 0.43508 cumulative IPC: 0.37412 (Simulation time: 0 hr 0 min 10 sec) 
Heartbeat CPU  0 instructions:    6000000 cycles:   13900051 heartbeat IPC: 0.37233 cumulative IPC: 0.37376 (Simulation time: 0 hr 0 min 12 sec) 
Heartbeat CPU  0 instructions:    7000003 cycles:   16766841 heartbeat IPC: 0.34882 cumulative IPC: 0.36936 (Simulation time: 0 hr 0 min 14 sec) 
Heartbeat CPU  0 instructions:    8000000 cycles:   19529282 heartbeat IPC: 0.36200 cumulative IPC: 0.36829 (Simulation time: 0 hr 0 min 16 sec) 
Heartbeat CPU  0 instructions:    9000002 cycles:   22256124 heartbeat IPC: 0.36673 cumulative IPC: 0.36809 (Simulation time: 0 hr 0 min 18 sec) 
Heartbeat CPU  0 instructions:   10000000 cycles:   25102666 heartbeat IPC: 0.35130 cumulative IPC: 0.36615 (Simulation time: 0 hr 0 min 20 sec) 
Heartbeat CPU  0 instructions:   11000002 cycles:   27872220 heartbeat IPC: 0.36107 cumulative IPC: 0.36563 (Simulation time: 0 hr 0 min 23 sec) 
Finished CPU 0 instructions: 10000002 cycles: 27349816 cumulative IPC: 0.36563 (Simulation time: 0 hr 0 min 23 sec) 

ChampSim completed all CPUs

[ROI Statistics]
Core_0_instructions 10000002
Core_0_cycles 27349816
Core_0_IPC 0.36563

Core_0_branch_prediction_accuracy 98.90900
Core_0_branch_MPKI 2.86330
Core_0_average_ROB_occupancy_at_mispredict 151.04781

Core_0_L1D_total_access 1909395
Core_0_L1D_total_hit 1630737
Core_0_L1D_total_miss 278658
Core_0_L1D_loads 1614008
Core_0_L1D_load_hit 1335987
Core_0_L1D_load_miss 278021
Core_0_L1D_RFOs 295387
Core_0_L1D_RFO_hit 294750
Core_0_L1D_RFO_miss 637
Core_0_L1D_prefetches 0
Core_0_L1D_prefetch_hit 0
Core_0_L1D_prefetch_miss 0
Core_0_L1D_writebacks 0
Core_0_L1D_writeback_hit 0
Core_0_L1D_writeback_miss 0
Core_0_L1D_prefetch_requested 0
Core_0_L1D_prefetch_dropped 0
Core_0_L1D_prefetch_issued 0
Core_0_L1D_prefetch_filled 0
Core_0_L1D_prefetch_useful 0
Core_0_L1D_prefetch_useless 0
Core_0_L1D_prefetch_late 0
Core_0_L1D_average_miss_latency 94.17938

Core_0_L1D_rq_access 3043773
Core_0_L1D_rq_forward 0
Core_0_L1D_rq_merged 1355618
Core_0_L1D_rq_to_cache 1688155
Core_0_L1D_rq_full 0

Core_0_L1D_wq_access 296186
Core_0_L1D_wq_forward 0
Core_0_L1D_wq_merged 53
Core_0_L1D_wq_to_cache 296133
Core_0_L1D_wq_full 0

Core_0_L1D_pq_access 0
Core_0_L1D_pq_forward 0
Core_0_L1D_pq_merged 0
Core_0_L1D_pq_to_cache 0
Core_0_L1D_pq_full 0

Core_0_L1D_acc_epochs 24863
Core_0_L1D_acc_level_0 24863
Core_0_L1D_acc_level_1 0
Core_0_L1D_acc_level_2 0
Core_0_L1D_acc_level_3 0
Core_0_L1D_acc_level_4 0
Core_0_L1D_acc_level_5 0
Core_0_L1D_acc_level_6 0
Core_0_L1D_acc_level_7 0
Core_0_L1D_acc_level_8 0
Core_0_L1D_acc_level_9 0

Core_0_L1I_total_access 3153994
Core_0_L1I_total_hit 3146851
Core_0_L1I_total_miss 7143
Core_0_L1I_loads 3153994
Core_0_L1I_load_hit 3146851
Core_0_L1I_load_miss 7143
Core_0_L1I_RFOs 0
Core_0_L1I_RFO_hit 0
Core_0_L1I_RFO_miss 0
Core_0_L1I_prefetches 0
Core_0_L1I_prefetch_hit 0
Core_0_L1I_prefetch_miss 0
Core_0_L1I_writebacks 0
Core_0_L1I_writeback_hit 0
Core_0_L1I_writeback_miss 0
Core_0_L1I_prefetch_requested 0
Core_0_L1I_prefetch_dropped 0
Core_0_L1I_prefetch_issued 0
Core_0_L1I_prefetch_filled 0
Core_0_L1I_prefetch_useful 0
Core_0_L1I_prefetch_useless 0
Core_0_L1I_prefetch_late 0
Core_0_L1I_average_miss_latency 43.19530

Core_0_L1I_rq_access 10000005
Core_0_L1I_rq_forward 0
Core_0_L1I_rq_merged 6842952
Core_0_L1I_rq_to_cache 3157053
Core_0_L1I_rq_full 0

Core_0_L1I_wq_access 0
Core_0_L1I_wq_forward 0
Core_0_L1I_wq_merged 0
Core_0_L1I_wq_to_cache 0
Core_0_L1I_wq_full 0

Core_0_L1I_pq_access 0
Core_0_L1I_pq_forward 0
Core_0_L1I_pq_merged 0
Core_0_L1I_pq_to_cache 0
Core_0_L1I_pq_full 0

Core_0_L1I_acc_epochs 24863
Core_0_L1I_acc_level_0 24863
Core_0_L1I_acc_level_1 0
Core_0_L1I_acc_level_2 0
Core_0_L1I_acc_level_3 0
Core_0_L1I_acc_level_4 0
Core_0_L1I_acc_level_5 0
Core_0_L1I_acc_level_6 0
Core_0_L1I_acc_level_7 0
Core_0_L1I_acc_level_8 0
Core_0_L1I_acc_level_9 0

Core_0_L2C_total_access 740387
Core_0_L2C_total_hit 320152
Core_0_L2C_total_miss 420235
Core_0_L2C_loads 285164
Core_0_L2C_load_hit 113292
Core_0_L2C_load_miss 171872
Core_0_L2C_RFOs 637
Core_0_L2C_RFO_hit 329
Core_0_L2C_RFO_miss 308
Core_0_L2C_prefetches 452774
Core_0_L2C_prefetch_hit 204824
Core_0_L2C_prefetch_miss 247950
Core_0_L2C_writebacks 1812
Core_0_L2C_writeback_hit 1707
Core_0_L2C_writeback_miss 105
Core_0_L2C_prefetch_requested 633576
Core_0_L2C_prefetch_dropped 0
Core_0_L2C_prefetch_issued 633576
Core_0_L2C_prefetch_filled 274511
Core_0_L2C_prefetch_useful 120852
Core_0_L2C_prefetch_useless 152300
Core_0_L2C_prefetch_late 27267
Core_0_L2C_average_miss_latency 132.16384

Core_0_L2C_rq_access 285802
Core_0_L2C_rq_forward 0
Core_0_L2C_rq_merged 0
Core_0_L2C_rq_to_cache 285802
Core_0_L2C_rq_full 0

Core_0_L2C_wq_access 1812
Core_0_L2C_wq_forward 0
Core_0_L2C_wq_merged 0
Core_0_L2C_wq_to_cache 1812
Core_0_L2C_wq_full 0

Core_0_L2C_pq_access 633576
Core_0_L2C_pq_forward 0
Core_0_L2C_pq_merged 42025
Core_0_L2C_pq_to_cache 591551
Core_0_L2C_pq_full 0

Core_0_L2C_acc_epochs 24863
Core_0_L2C_acc_level_0 358
Core_0_L2C_acc_level_1 1204
Core_0_L2C_acc_level_2 3664
Core_0_L2C_acc_level_3 5191
Core_0_L2C_acc_level_4 5108
Core_0_L2C_acc_level_5 3887
Core_0_L2C_acc_level_6 2396
Core_0_L2C_acc_level_7 1356
Core_0_L2C_acc_level_8 734
Core_0_L2C_acc_level_9 965

Core_0_LLC_total_access 421083
Core_0_LLC_total_hit 34569
Core_0_LLC_total_miss 386514
Core_0_LLC_loads 145035
Core_0_LLC_load_hit 12542
Core_0_LLC_load_miss 132493
Core_0_LLC_RFOs 307
Core_0_LLC_RFO_hit 174
Core_0_LLC_RFO_miss 133
Core_0_LLC_prefetches 274788
Core_0_LLC_prefetch_hit 20908
Core_0_LLC_prefetch_miss 253880
Core_0_LLC_writebacks 953
Core_0_LLC_writeback_hit 945
Core_0_LLC_writeback_miss 8
Core_0_LLC_prefetch_requested 0
Core_0_LLC_prefetch_dropped 0
Core_0_LLC_prefetch_issued 0
Core_0_LLC_prefetch_filled 280867
Core_0_LLC_prefetch_useful 979
Core_0_LLC_prefetch_useless 261237
Core_0_LLC_prefetch_late 0
Core_0_LLC_average_miss_latency 110.64152

Core_0_LLC_rq_access 145342
Core_0_LLC_rq_forward 0
Core_0_LLC_rq_merged 0
Core_0_LLC_rq_to_cache 145342
Core_0_LLC_rq_full 0

Core_0_LLC_wq_access 953
Core_0_LLC_wq_forward 0
Core_0_LLC_wq_merged 0
Core_0_LLC_wq_to_cache 953
Core_0_LLC_wq_full 0

Core_0_LLC_pq_access 301788
Core_0_LLC_pq_forward 0
Core_0_LLC_pq_merged 0
Core_0_LLC_pq_to_cache 301788
Core_0_LLC_pq_full 0

Core_0_LLC_acc_epochs 27219
Core_0_LLC_acc_level_0 26522
Core_0_LLC_acc_level_1 250
Core_0_LLC_acc_level_2 165
Core_0_LLC_acc_level_3 55
Core_0_LLC_acc_level_4 21
Core_0_LLC_acc_level_5 122
Core_0_LLC_acc_level_6 18
Core_0_LLC_acc_level_7 13
Core_0_LLC_acc_level_8 4
Core_0_LLC_acc_level_9 49

Core_0_major_page_fault 0
Core_0_minor_page_fault 13041

scooby_st_lookup 312933
scooby_st_hit 283365
scooby_st_evict 29504
scooby_st_insert 29568
scooby_st_streaming 0

scooby_predict_called 312933
scooby_predict_out_of_bounds 8270
scooby_predict_action_1 210220
scooby_predict_issue_action_1 185421
scooby_predict_hit_action_1 24799
scooby_predict_out_of_bounds_action_1 3166
scooby_predict_action_3 88924
scooby_predict_issue_action_3 76700
scooby_predict_hit_action_3 12224
scooby_predict_out_of_bounds_action_3 4470
scooby_predict_action_4 160
scooby_predict_issue_action_4 135
scooby_predict_hit_action_4 25
scooby_predict_out_of_bounds_action_4 14
scooby_predict_action_5 4290
scooby_predict_issue_action_5 3954
scooby_predict_hit_action_5 336
scooby_predict_out_of_bounds_action_5 355
scooby_predict_action_10 152
scooby_predict_issue_action_10 150
scooby_predict_hit_action_10 2
scooby_predict_out_of_bounds_action_10 21
scooby_predict_action_11 93
scooby_predict_issue_action_11 90
scooby_predict_hit_action_11 3
scooby_predict_out_of_bounds_action_11 28
scooby_predict_action_12 81
scooby_predict_issue_action_12 78
scooby_predict_hit_action_12 3
scooby_predict_out_of_bounds_action_12 18
scooby_predict_action_22 90
scooby_predict_issue_action_22 89
scooby_predict_hit_action_22 1
scooby_predict_out_of_bounds_action_22 60
scooby_predict_action_23 86
scooby_predict_issue_action_23 85
scooby_predict_hit_action_23 1
scooby_predict_out_of_bounds_action_23 43
scooby_predict_action_30 26
scooby_predict_issue_action_30 26
scooby_predict_hit_action_30 0
scooby_predict_out_of_bounds_action_30 24
scooby_predict_action_32 43
scooby_predict_issue_action_32 41
scooby_predict_hit_action_32 2
scooby_predict_out_of_bounds_action_32 48
scooby_predict_action_-1 191
scooby_predict_issue_action_-1 175
scooby_predict_hit_action_-1 16
scooby_predict_out_of_bounds_action_-1 4
scooby_predict_action_-3 50
scooby_predict_issue_action_-3 41
scooby_predict_hit_action_-3 9
scooby_predict_out_of_bounds_action_-3 1
scooby_predict_action_-6 144
scooby_predict_issue_action_-6 138
scooby_predict_hit_action_-6 6
scooby_predict_out_of_bounds_action_-6 18
scooby_predict_action_0 113
scooby_predict_issue_action_0 0
scooby_predict_hit_action_0 0
scooby_predict_out_of_bounds_action_0 0
scooby_predict_multi_deg_called 137908
scooby_predict_predicted 633576
scooby_predict_multi_deg 366453
scooby_predict_multi_deg_2 134465
scooby_predict_multi_deg_3 86956
scooby_predict_multi_deg_4 84639
scooby_predict_multi_deg_5 30663
scooby_predict_multi_deg_6 29730
scooby_predict_multi_deg_7 0
scooby_predict_multi_deg_8 0
scooby_predict_multi_deg_9 0
scooby_predict_multi_deg_10 0
scooby_predict_multi_deg_11 0
scooby_predict_multi_deg_12 0
scooby_predict_multi_deg_13 0
scooby_predict_multi_deg_14 0
scooby_predict_multi_deg_15 0
scooby_predict_multi_deg_16 0

scooby_selected_deg_1 129215
scooby_selected_deg_2 46323
scooby_selected_deg_3 0
scooby_selected_deg_4 57402
scooby_selected_deg_5 0
scooby_selected_deg_6 34183
scooby_selected_deg_7 0
scooby_selected_deg_8 0
scooby_selected_deg_9 0
scooby_selected_deg_10 0
scooby_selected_deg_11 0
scooby_selected_deg_12 0
scooby_selected_deg_13 0
scooby_selected_deg_14 0
scooby_selected_deg_15 0
scooby_selected_deg_16 0

scooby_state_50ba77|0|0 619,0,0,0,0,0,0,0,0,0,0,0,0,0,0,619,
scooby_state_50b9ec|0|0 0,494,0,0,0,1,1,0,0,0,0,0,0,0,0,496,
scooby_state_50ba86|0|0 424,2,0,0,0,0,0,0,0,0,0,0,0,0,0,426,
scooby_state_50b9ec|1|0 1,425,0,0,0,0,0,0,0,0,0,0,0,0,0,426,
scooby_state_50ba86|1|0 391,0,0,0,0,0,0,0,0,0,0,0,0,0,0,391,
scooby_state_50ba77|56|1 380,0,0,0,0,0,0,0,0,0,0,0,0,0,1,381,
scooby_state_50ba77|1|0 376,0,0,0,0,0,0,0,0,0,0,1,0,0,0,377,
scooby_state_50ba77|5|1 374,0,0,0,0,0,0,1,0,0,0,0,0,0,0,375,
scooby_state_50ba77|33|1 365,0,0,0,0,0,0,0,0,0,0,0,0,0,0,365,
scooby_state_50ba77|17|1 352,1,0,0,0,0,0,0,0,0,0,0,0,0,0,353,
scooby_state_50ba77|27|1 348,0,0,0,0,0,0,0,0,0,0,0,0,0,1,349,
scooby_state_50ba77|4|1 348,0,0,1,0,0,0,0,0,0,0,0,0,0,0,349,
scooby_state_50ba86|2|0 345,0,0,0,0,0,0,0,0,0,0,0,0,0,0,345,
scooby_state_50ba77|6|1 343,0,0,0,0,0,0,0,0,1,0,0,0,0,0,344,
scooby_state_50ba77|54|1 341,0,0,0,0,0,0,0,0,0,0,1,0,0,0,342,
scooby_state_50ba77|47|1 337,0,0,0,0,0,1,0,0,0,0,0,0,0,0,338,
scooby_state_50ba77|55|1 335,0,0,0,1,0,0,0,0,0,0,0,0,0,0,336,
scooby_state_50ba77|23|1 333,0,0,0,0,0,0,0,0,0,0,0,0,1,0,334,
scooby_state_50ba77|29|1 333,0,0,0,0,0,0,0,0,0,0,0,0,0,0,333,
scooby_state_50ba77|38|1 332,0,0,0,0,0,0,0,0,0,0,0,0,0,0,332,
scooby_state_50ba77|16|1 331,0,0,0,0,0,0,0,0,0,0,0,0,0,0,331,
scooby_state_50ba77|41|1 329,0,0,0,0,0,1,0,0,0,0,0,0,0,0,330,
scooby_state_50ba77|20|1 325,0,0,0,0,0,0,1,0,0,1,0,0,0,0,327,
scooby_state_50ba77|37|1 325,0,0,0,0,0,0,0,0,0,0,0,0,0,0,325,
scooby_state_50ba77|13|1 325,0,0,0,0,0,0,0,0,0,0,0,0,0,0,325,
scooby_state_50ba77|48|1 324,0,0,0,0,0,0,0,0,0,0,0,0,0,0,324,
scooby_state_50ba77|45|1 322,0,0,0,0,0,1,0,0,0,0,0,0,0,0,323,
scooby_state_50ba77|31|1 322,0,0,0,0,0,0,0,0,0,0,0,0,0,0,322,
scooby_state_50ba77|22|1 320,0,0,0,0,0,0,1,0,0,0,0,0,1,0,322,
scooby_state_50ba77|40|1 321,0,0,0,0,0,1,0,0,0,0,0,0,0,0,322,
scooby_state_50ba77|34|1 319,0,0,0,0,0,0,0,0,0,0,0,1,0,0,320,
scooby_state_50ba77|42|1 319,0,0,0,0,0,0,0,0,1,0,0,0,0,0,320,
scooby_state_50ba77|3|1 318,0,0,0,0,0,0,0,1,0,0,0,0,0,0,319,
scooby_state_50ba77|58|1 318,0,0,0,0,0,0,0,0,0,0,0,0,0,0,318,
scooby_state_50ba77|53|1 317,0,0,0,1,0,0,0,0,0,0,0,0,0,0,318,
scooby_state_50ba77|1|1 316,0,0,0,0,0,0,0,0,0,0,0,0,0,0,316,
scooby_state_50ba77|46|1 316,0,0,0,0,0,0,0,0,0,0,0,0,0,0,316,
scooby_state_50ba77|63|1 312,0,0,0,0,0,0,0,0,0,1,0,0,0,0,313,
scooby_state_50ba77|59|1 312,0,0,0,0,0,0,0,0,0,0,1,0,0,0,313,
scooby_state_50ba77|44|1 310,0,0,0,0,0,0,0,0,0,2,0,0,0,0,312,
scooby_state_50ba77|39|1 310,0,0,0,0,0,0,0,0,0,0,0,0,0,0,310,
scooby_state_50ba77|32|1 309,0,0,0,0,0,0,0,0,0,0,0,0,0,0,309,
scooby_state_50ba77|43|1 307,1,0,0,0,0,0,0,0,0,0,0,0,0,0,308,
scooby_state_50ba77|2|1 307,0,0,0,0,0,0,0,0,0,0,0,0,0,0,307,
scooby_state_50ba77|28|1 305,1,0,0,0,0,0,0,0,0,0,0,0,0,0,306,
scooby_state_50ba77|19|1 305,1,0,0,0,0,0,0,0,0,0,0,0,0,0,306,
scooby_state_50ba77|25|1 304,0,0,0,1,0,0,0,0,0,0,0,1,0,0,306,
scooby_state_50ba77|15|1 305,0,0,0,0,0,0,0,0,0,0,0,0,0,0,305,
scooby_state_50ba77|51|1 302,1,0,0,0,0,0,0,1,0,0,0,0,0,0,304,
scooby_state_50ba94|9|-1 0,300,1,0,0,0,0,0,1,0,0,0,0,0,0,302,
scooby_state_50ba77|57|1 302,0,0,0,0,0,0,0,0,0,0,0,0,0,0,302,
scooby_state_50ba77|24|1 300,0,0,0,0,0,0,0,0,0,0,0,0,0,0,300,
scooby_state_50b9ec|2|0 0,300,0,0,0,0,0,0,0,0,0,0,0,0,0,300,
scooby_state_50ba77|9|1 299,0,0,0,0,0,0,0,0,0,0,0,0,0,0,299,
scooby_state_50ba77|49|1 297,0,0,0,0,0,0,0,0,0,0,0,0,0,0,297,
scooby_state_50ba77|7|1 294,1,0,0,0,0,0,0,0,0,0,0,0,0,0,295,
scooby_state_50ba77|26|1 291,0,0,0,0,0,1,0,0,0,0,0,0,0,0,292,
scooby_state_50ba94|0|-1 0,292,0,0,0,0,0,0,0,0,0,0,0,0,0,292,
scooby_state_50ba94|45|-1 1,288,0,0,0,0,0,0,0,0,0,0,0,0,0,289,
scooby_state_50ba77|14|1 287,0,0,0,0,0,0,0,0,1,0,0,0,0,0,288,
scooby_state_50ba77|10|1 287,0,0,0,0,0,0,0,0,1,0,0,0,0,0,288,
scooby_state_50ba77|62|1 286,0,0,0,0,0,0,0,0,0,0,0,0,0,0,286,
scooby_state_50ba77|12|1 286,0,0,0,0,0,0,0,0,0,0,0,0,0,0,286,
scooby_state_50ba94|7|-1 0,286,0,0,0,0,0,0,0,0,0,0,0,0,0,286,
scooby_state_50ba77|21|1 284,0,0,0,0,0,0,0,1,0,0,0,0,1,0,286,
scooby_state_50ba77|61|1 281,0,0,0,0,0,0,0,0,1,0,0,0,0,1,283,
scooby_state_50ba94|12|-1 0,281,0,0,0,0,0,0,1,0,0,0,0,0,0,282,
scooby_state_50ba77|30|1 275,0,0,0,0,0,0,0,0,0,0,0,0,0,0,275,
scooby_state_50ba77|60|1 272,1,1,0,0,0,0,0,0,0,0,0,0,0,0,274,
scooby_state_50ba77|18|1 274,0,0,0,0,0,0,0,0,0,0,0,0,0,0,274,
scooby_state_50ba77|8|1 271,0,0,0,0,0,0,0,0,0,0,0,0,0,0,271,
scooby_state_50ba77|50|1 270,0,0,0,0,0,0,0,1,0,0,0,0,0,0,271,
scooby_state_50ba94|55|-1 0,270,0,0,0,0,0,0,0,0,0,0,0,0,0,270,
scooby_state_50ba77|36|1 270,0,0,0,0,0,0,0,0,0,0,0,0,0,0,270,
scooby_state_50ba77|52|1 267,1,0,1,0,0,0,0,0,0,0,0,0,0,0,269,
scooby_state_50ba94|37|-1 1,262,0,0,0,0,0,0,0,0,0,0,0,0,0,263,
scooby_state_50ba77|35|1 261,0,0,0,0,0,0,0,0,0,0,0,0,0,0,261,
scooby_state_50ba94|23|-1 0,260,0,0,0,0,0,0,0,0,0,0,0,0,0,260,
scooby_state_50ba94|46|-1 0,258,0,0,0,0,0,1,0,0,0,0,0,0,0,259,
scooby_state_50ba94|6|-1 0,254,0,0,0,0,0,0,0,1,1,0,0,0,0,256,
scooby_state_50ba94|16|-1 1,253,0,0,0,0,0,0,0,0,0,0,0,0,0,254,
scooby_state_50ba94|3|-1 0,253,0,0,0,0,0,0,0,1,0,0,0,0,0,254,
scooby_state_50ba94|40|-1 0,254,0,0,0,0,0,0,0,0,0,0,0,0,0,254,
scooby_state_50ba77|11|1 253,0,0,0,0,0,0,0,0,0,0,0,0,0,0,253,
scooby_state_50ba94|41|-1 0,251,0,0,0,0,0,0,0,0,0,0,0,0,0,251,
scooby_state_50ba94|51|-1 0,251,0,0,0,0,0,0,0,0,0,0,0,0,0,251,
scooby_state_50ba94|38|-1 1,250,0,0,0,0,0,0,0,0,0,0,0,0,0,251,
scooby_state_50ba94|25|-1 0,250,0,0,0,0,0,0,0,0,0,0,0,0,0,250,
scooby_state_50ba94|19|-1 0,249,0,0,0,0,0,0,0,0,0,0,0,0,0,249,
scooby_state_50ba94|39|-1 1,247,0,0,0,0,0,0,0,0,0,0,0,0,0,248,
scooby_state_50ba94|13|-1 0,247,0,0,0,0,0,0,0,0,0,0,0,0,0,247,
scooby_state_50ba94|34|-1 0,247,0,0,0,0,0,0,0,0,0,0,0,0,0,247,
scooby_state_50ba94|8|-1 1,246,0,0,0,0,0,0,0,0,0,0,0,0,0,247,
scooby_state_50ba94|60|-1 0,246,0,1,0,0,0,0,0,0,0,0,0,0,0,247,
scooby_state_50ba94|29|-1 0,246,0,0,0,0,0,0,0,0,0,0,0,1,0,247,
scooby_state_50ba94|48|-1 0,246,0,0,0,0,0,0,0,0,0,0,0,0,0,246,
scooby_state_50ba94|27|-1 0,244,0,0,0,0,0,0,0,0,0,0,0,0,0,244,
scooby_state_50ba94|53|-1 2,241,0,0,0,0,0,0,0,0,0,0,0,0,0,243,
scooby_state_50ba94|33|-1 0,243,0,0,0,0,0,0,0,0,0,0,0,0,0,243,
scooby_state_50ba94|1|-1 0,240,0,0,0,0,0,0,0,0,0,0,0,0,0,240,
scooby_state_50ba94|43|-1 0,239,0,0,0,0,0,0,0,1,0,0,0,0,0,240,
scooby_state_50ba94|49|-1 0,238,0,0,0,0,0,1,0,0,0,0,0,0,0,239,
scooby_state_50ba94|4|-1 0,238,0,0,0,0,0,0,0,0,0,0,0,0,0,238,
scooby_state_50ba94|58|-1 0,236,0,0,1,0,0,0,0,0,0,0,0,0,0,237,
scooby_state_50ba94|52|-1 0,236,0,0,0,0,0,0,0,0,0,1,0,0,0,237,
scooby_state_50ba94|5|-1 0,236,0,0,0,0,0,0,0,0,0,0,0,0,0,236,
scooby_state_50ba94|11|-1 0,236,0,0,0,0,0,0,0,0,0,0,0,0,0,236,
scooby_state_50ba94|32|-1 2,232,0,0,0,0,0,0,0,0,0,0,0,0,0,234,
scooby_state_50ba94|59|-1 0,234,0,0,0,0,0,0,0,0,0,0,0,0,0,234,
scooby_state_50ba94|10|-1 0,233,0,0,0,0,0,0,0,0,0,0,0,0,0,233,
scooby_state_50ba94|20|-1 0,232,0,0,0,0,0,0,0,0,0,0,0,0,0,232,
scooby_state_50ba94|31|-1 0,230,0,0,0,0,0,0,0,0,0,0,0,0,0,230,
scooby_state_50ba94|50|-1 0,230,0,0,0,0,0,0,0,0,0,0,0,0,0,230,
scooby_state_50ba69|0|0 227,2,0,0,0,0,0,0,0,0,0,0,0,0,0,229,
scooby_state_50ba94|42|-1 0,228,0,0,0,0,0,0,0,0,0,0,0,0,1,229,
scooby_state_50ba94|61|-1 0,228,0,0,0,0,0,0,0,0,0,0,0,0,0,228,
scooby_state_50ba94|17|-1 0,227,0,0,0,0,0,0,0,0,0,0,0,0,0,227,
scooby_state_50ba94|44|-1 0,225,0,0,0,0,0,1,0,0,0,0,0,0,0,226,
scooby_state_50ba94|57|-1 0,223,0,0,0,0,0,0,0,0,0,1,0,1,0,225,
scooby_state_50ba94|36|-1 1,224,0,0,0,0,0,0,0,0,0,0,0,0,0,225,
scooby_state_50ba90|23|1 223,0,0,0,0,0,0,0,0,0,0,0,0,0,0,223,
scooby_state_50ba94|47|-1 0,223,0,0,0,0,0,0,0,0,0,0,0,0,0,223,
scooby_state_50ba90|55|1 221,0,0,1,0,0,0,0,0,0,0,0,0,0,0,222,
scooby_state_50ba94|28|-1 0,220,0,0,0,0,0,0,0,0,0,0,0,0,0,220,
scooby_state_50ba94|2|-1 0,220,0,0,0,0,0,0,0,0,0,0,0,0,0,220,
scooby_state_50ba94|14|-1 0,219,0,0,0,0,0,0,0,0,0,0,0,0,0,219,
scooby_state_50b9ec|3|0 0,218,0,0,0,0,0,0,0,0,0,0,0,0,0,218,
scooby_state_50ba94|18|-1 1,216,0,0,0,0,0,0,0,0,0,0,0,1,0,218,
scooby_state_50ba94|22|-1 0,216,0,0,0,0,0,0,0,0,0,0,0,0,0,216,
scooby_state_50ba94|62|-1 0,216,0,0,0,0,0,0,0,0,0,0,0,0,0,216,
scooby_state_50ba90|4|1 214,0,0,0,0,1,0,0,0,0,0,0,0,0,0,215,
scooby_state_50ba94|35|-1 0,213,0,0,0,0,0,0,0,0,0,0,0,0,0,213,
scooby_state_50ba77|2|0 209,0,0,0,0,0,0,0,0,0,0,0,0,0,0,209,
scooby_state_50ba94|56|-1 0,208,0,0,0,0,0,0,0,0,0,0,0,0,0,208,
scooby_state_50ba90|30|1 206,0,0,0,0,0,0,0,0,0,0,0,1,0,0,207,
scooby_state_50ba94|21|-1 1,204,0,0,0,0,0,0,0,0,0,0,0,0,0,205,
scooby_state_50ba86|3|0 205,0,0,0,0,0,0,0,0,0,0,0,0,0,0,205,
scooby_state_50ba94|24|-1 1,203,0,0,0,0,0,0,0,0,0,0,0,0,0,204,
scooby_state_50ba90|12|1 203,0,0,1,0,0,0,0,0,0,0,0,0,0,0,204,
scooby_state_50ba90|28|1 204,0,0,0,0,0,0,0,0,0,0,0,0,0,0,204,
scooby_state_50ba94|30|-1 0,203,0,0,0,0,0,0,0,0,0,0,0,0,0,203,
scooby_state_50ba90|27|1 198,0,0,0,0,0,0,0,0,0,0,0,0,0,0,198,
scooby_state_50ba90|21|1 197,0,1,0,0,0,0,0,0,0,0,0,0,0,0,198,
scooby_state_50ba90|53|1 197,0,0,0,0,0,0,0,0,0,0,0,1,0,0,198,
scooby_state_50ba94|26|-1 0,196,0,0,0,0,0,0,0,0,0,0,0,1,0,197,
scooby_state_50ba90|3|1 195,0,0,0,0,0,0,0,0,0,0,0,1,0,0,196,
scooby_state_50b390|61|-2 194,0,1,0,0,0,0,0,0,0,0,0,0,0,0,195,
scooby_state_50ba90|49|1 195,0,0,0,0,0,0,0,0,0,0,0,0,0,0,195,
scooby_state_50ba94|54|-1 0,194,0,0,0,0,0,0,0,0,0,0,0,0,0,194,
scooby_state_50ba94|15|-1 0,191,0,0,1,0,0,0,0,0,0,0,0,0,0,192,
scooby_state_50ba90|61|1 192,0,0,0,0,0,0,0,0,0,0,0,0,0,0,192,
scooby_state_50ba69|1|0 190,2,0,0,0,0,0,0,0,0,0,0,0,0,0,192,
scooby_state_50ba90|26|1 191,0,0,0,0,0,0,0,0,0,0,0,0,0,0,191,
scooby_state_50ba90|37|1 190,1,0,0,0,0,0,0,0,0,0,0,0,0,0,191,
scooby_state_50ba90|42|1 191,0,0,0,0,0,0,0,0,0,0,0,0,0,0,191,
scooby_state_50ba90|18|1 191,0,0,0,0,0,0,0,0,0,0,0,0,0,0,191,
scooby_state_50b9e2|0|0 190,0,0,0,0,0,0,0,0,0,0,0,0,0,0,190,
scooby_state_50ba90|44|1 188,0,0,0,0,0,0,0,0,0,0,0,0,0,0,188,
scooby_state_50ba90|22|1 188,0,0,0,0,0,0,0,0,0,0,0,0,0,0,188,
scooby_state_50ba90|47|1 186,1,0,0,0,0,0,0,0,0,0,0,0,0,0,187,
scooby_state_50ba90|33|1 185,0,0,0,0,0,0,0,0,0,0,0,0,0,0,185,
scooby_state_50ba90|7|1 184,0,0,0,0,0,0,0,0,0,0,0,0,0,0,184,
scooby_state_50ba90|9|1 184,0,0,0,0,0,0,0,0,0,0,0,0,0,0,184,
scooby_state_50ba90|62|1 183,0,0,0,0,0,0,0,0,0,0,0,0,0,0,183,
scooby_state_50ba86|4|4 180,0,0,0,0,0,0,1,1,0,0,0,0,0,0,182,
scooby_state_50ba90|63|1 180,1,0,0,0,0,0,0,0,0,0,0,0,0,0,181,
scooby_state_50ba90|40|1 181,0,0,0,0,0,0,0,0,0,0,0,0,0,0,181,
scooby_state_50ba90|25|1 180,0,0,0,0,0,1,0,0,0,0,0,0,0,0,181,
scooby_state_50ba90|58|1 179,0,0,0,0,0,0,0,0,0,0,0,0,0,0,179,
scooby_state_50ba90|15|1 179,0,0,0,0,0,0,0,0,0,0,0,0,0,0,179,
scooby_state_50b9ec|5|0 1,178,0,0,0,0,0,0,0,0,0,0,0,0,0,179,
scooby_state_50ba90|16|1 178,0,0,0,0,0,0,0,0,0,0,0,0,0,0,178,
scooby_state_50ba90|8|1 178,0,0,0,0,0,0,0,0,0,0,0,0,0,0,178,
scooby_state_50ba90|41|1 176,1,0,0,0,0,0,0,0,0,0,0,0,0,0,177,
scooby_state_50ba90|48|1 173,0,0,0,1,0,0,0,2,0,0,0,0,0,0,176,
scooby_state_50ba90|11|1 175,1,0,0,0,0,0,0,0,0,0,0,0,0,0,176,
scooby_state_50ba90|50|1 173,0,0,0,0,0,0,0,0,0,0,0,0,1,0,174,
scooby_state_50ba90|20|1 173,1,0,0,0,0,0,0,0,0,0,0,0,0,0,174,
scooby_state_50ba90|24|1 173,0,0,0,0,0,0,0,0,0,0,0,0,0,0,173,
scooby_state_50ba90|38|1 173,0,0,0,0,0,0,0,0,0,0,0,0,0,0,173,
scooby_state_50ba90|31|1 171,0,0,0,0,0,0,0,0,0,0,0,0,1,0,172,
scooby_state_50ba90|56|1 172,0,0,0,0,0,0,0,0,0,0,0,0,0,0,172,
scooby_state_50ba90|10|1 171,0,0,0,0,0,0,0,0,0,0,0,0,0,0,171,
scooby_state_50ba90|14|1 171,0,0,0,0,0,0,0,0,0,0,0,0,0,0,171,
scooby_state_50ba90|19|1 170,0,0,0,0,0,0,0,0,0,0,0,0,0,0,170,
scooby_state_50ba77|13|2 168,0,0,0,0,0,0,0,0,0,0,0,0,0,0,168,
scooby_state_50ba90|5|1 167,1,0,0,0,0,0,0,0,0,0,0,0,0,0,168,
scooby_state_50ba90|32|1 167,0,0,0,0,0,0,0,0,0,0,0,0,0,0,167,
scooby_state_50ba90|39|1 167,0,0,0,0,0,0,0,0,0,0,0,0,0,0,167,
scooby_state_50ba90|29|1 163,0,0,0,0,0,0,0,0,0,0,0,0,1,1,165,
scooby_state_50ba90|54|1 165,0,0,0,0,0,0,0,0,0,0,0,0,0,0,165,
scooby_state_50ba90|6|1 164,0,0,0,0,0,0,0,0,0,0,0,0,0,0,164,
scooby_state_50ba90|52|1 163,0,0,0,0,0,0,0,0,0,0,0,0,0,1,164,
scooby_state_50ba90|46|1 163,0,0,0,0,0,0,0,0,0,0,0,0,0,0,163,
scooby_state_50ba90|2|1 162,0,0,0,0,0,0,0,0,0,0,0,0,0,0,162,
scooby_state_50ba90|45|1 162,0,0,0,0,0,0,0,0,0,0,0,0,0,0,162,
scooby_state_50ba90|51|1 161,0,0,0,0,0,0,1,0,0,0,0,0,0,0,162,
scooby_state_50ba90|1|1 160,0,0,0,0,0,0,0,0,0,0,0,0,0,0,160,
scooby_state_50ba90|35|1 160,0,0,0,0,0,0,0,0,0,0,0,0,0,0,160,
scooby_state_50ba86|3|3 158,0,0,0,0,0,1,0,0,0,0,0,0,0,0,159,
scooby_state_50b9e2|2|0 158,0,0,0,0,0,0,0,0,0,0,0,0,0,0,158,
scooby_state_50ba86|11|4 158,0,0,0,0,0,0,0,0,0,0,0,0,0,0,158,
scooby_state_50ba90|34|1 157,0,0,0,0,0,0,0,0,0,0,0,0,0,0,157,
scooby_state_50ba90|57|1 153,0,0,1,0,0,0,0,0,0,0,0,0,0,0,154,
scooby_state_50ba77|56|2 154,0,0,0,0,0,0,0,0,0,0,0,0,0,0,154,
scooby_state_50ba77|26|2 154,0,0,0,0,0,0,0,0,0,0,0,0,0,0,154,
scooby_state_50ba90|13|1 154,0,0,0,0,0,0,0,0,0,0,0,0,0,0,154,
scooby_state_50ba69|60|-3 38,115,0,0,0,0,0,0,0,0,0,0,0,0,0,153,
scooby_state_50ba69|57|-3 59,94,0,0,0,0,0,0,0,0,0,0,0,0,0,153,
scooby_state_50ba90|59|1 150,0,0,0,0,0,0,0,0,0,0,0,0,0,0,150,
scooby_state_50b9ec|4|0 1,147,0,0,1,0,0,0,0,1,0,0,0,0,0,150,
scooby_state_50ba86|5|4 150,0,0,0,0,0,0,0,0,0,0,0,0,0,0,150,
scooby_state_50b390|0|-3 149,0,0,0,0,0,0,0,0,0,0,0,0,0,0,149,
scooby_state_50ba90|36|1 148,0,0,1,0,0,0,0,0,0,0,0,0,0,0,149,
scooby_state_50ba77|8|2 147,0,0,0,0,0,0,0,0,0,0,0,0,0,0,147,
scooby_state_50ba86|4|3 146,0,0,0,0,0,0,0,0,0,0,0,0,0,0,146,
scooby_state_50b390|63|1 134,12,0,0,0,0,0,0,0,0,0,0,0,0,0,146,
scooby_state_50ba77|35|2 145,0,0,0,0,0,0,0,0,0,0,0,0,0,0,145,
scooby_state_50ba77|44|2 144,0,0,0,0,0,0,0,0,0,0,0,0,0,0,144,
scooby_state_50ba77|20|2 142,0,0,0,1,0,0,0,0,0,0,0,0,0,0,143,
scooby_state_50b9ec|2|2 11,132,0,0,0,0,0,0,0,0,0,0,0,0,0,143,
scooby_state_50b9e2|3|0 142,0,0,0,0,0,0,0,0,0,0,0,0,0,0,142,
scooby_state_50b390|52|-3 139,1,0,1,0,0,0,0,0,0,0,0,0,0,0,141,
scooby_state_50ba90|60|1 141,0,0,0,0,0,0,0,0,0,0,0,0,0,0,141,
scooby_state_50ba77|61|2 141,0,0,0,0,0,0,0,0,0,0,0,0,0,0,141,
scooby_state_50ba90|43|1 140,0,0,0,0,0,0,0,0,0,0,0,0,0,0,140,
scooby_state_50ba86|7|4 140,0,0,0,0,0,0,0,0,0,0,0,0,0,0,140,
scooby_state_50ba77|7|2 139,0,0,0,0,0,0,0,0,0,0,0,0,0,0,139,
scooby_state_50ba86|6|3 139,0,0,0,0,0,0,0,0,0,0,0,0,0,0,139,
scooby_state_50ba69|63|2 6,132,1,0,0,0,0,0,0,0,0,0,0,0,0,139,
scooby_state_50b390|60|-3 138,0,0,1,0,0,0,0,0,0,0,0,0,0,0,139,
scooby_state_50b9ec|3|1 0,138,0,0,0,0,0,0,0,0,0,0,0,0,0,138,
scooby_state_50ba77|46|2 138,0,0,0,0,0,0,0,0,0,0,0,0,0,0,138,
scooby_state_50ba77|40|2 137,0,0,0,0,0,0,0,0,0,0,0,0,0,0,137,
scooby_state_50ba94|63|1 2,135,0,0,0,0,0,0,0,0,0,0,0,0,0,137,
scooby_state_50ba69|54|-3 48,88,0,0,0,0,0,0,0,0,0,0,0,1,0,137,
scooby_state_50b9e2|1|0 136,0,0,0,0,0,0,0,0,0,0,0,0,0,0,136,
scooby_state_50ba69|59|-3 59,77,0,0,0,0,0,0,0,0,0,0,0,0,0,136,
scooby_state_50ba77|17|2 136,0,0,0,0,0,0,0,0,0,0,0,0,0,0,136,
scooby_state_50ba69|56|-3 52,83,0,0,0,0,0,0,0,0,0,0,0,0,0,135,
scooby_state_50b9ec|6|0 0,135,0,0,0,0,0,0,0,0,0,0,0,0,0,135,
scooby_state_50ba77|19|2 135,0,0,0,0,0,0,0,0,0,0,0,0,0,0,135,
scooby_state_50b390|50|-3 130,1,1,1,0,0,0,0,0,0,0,0,0,0,0,133,
scooby_state_50ba69|2|0 132,0,0,0,0,0,0,0,0,0,0,0,0,0,0,132,
scooby_state_50ba86|12|4 129,0,0,0,0,0,0,1,0,0,0,2,0,0,0,132,
scooby_state_50ba86|54|4 132,0,0,0,0,0,0,0,0,0,0,0,0,0,0,132,
scooby_state_50ba69|3|0 129,2,0,0,1,0,0,0,0,0,0,0,0,0,0,132,
scooby_state_50ba73|37|1 130,0,0,0,0,0,0,0,1,0,0,0,0,0,0,131,
scooby_state_50ba77|29|2 131,0,0,0,0,0,0,0,0,0,0,0,0,0,0,131,
scooby_state_50ba90|17|1 131,0,0,0,0,0,0,0,0,0,0,0,0,0,0,131,
scooby_state_50ba86|14|4 130,0,0,0,0,0,0,0,0,0,0,0,0,0,0,130,
scooby_state_50ba86|17|4 130,0,0,0,0,0,0,0,0,0,0,0,0,0,0,130,
scooby_state_50b9e2|4|0 129,0,0,0,0,0,0,0,1,0,0,0,0,0,0,130,
scooby_state_50b390|26|-3 126,2,0,0,0,0,0,0,0,0,1,0,0,0,0,129,
scooby_state_50ba77|41|2 128,0,0,0,0,0,0,0,0,0,0,0,0,1,0,129,
scooby_state_50ba77|10|2 128,0,0,0,0,0,0,0,0,0,0,0,0,0,0,128,
scooby_state_50b390|14|-3 128,0,0,0,0,0,0,0,0,0,0,0,0,0,0,128,
scooby_state_50b390|15|-3 124,1,0,3,0,0,0,0,0,0,0,0,0,0,0,128,
scooby_state_50ba77|4|3 128,0,0,0,0,0,0,0,0,0,0,0,0,0,0,128,
scooby_state_50ba77|54|2 128,0,0,0,0,0,0,0,0,0,0,0,0,0,0,128,
scooby_state_50ba77|42|2 126,0,0,0,0,0,0,0,0,0,0,0,1,0,0,127,
scooby_state_50b390|19|-3 126,0,0,1,0,0,0,0,0,0,0,0,0,0,0,127,
scooby_state_50ba86|50|4 127,0,0,0,0,0,0,0,0,0,0,0,0,0,0,127,
scooby_state_50ba69|2|2 2,124,0,0,0,0,0,0,0,0,0,0,0,0,1,127,
scooby_state_50b9ec|7|0 0,127,0,0,0,0,0,0,0,0,0,0,0,0,0,127,
scooby_state_50ba69|61|2 3,123,0,0,0,0,0,0,0,0,0,0,0,0,0,126,
scooby_state_50ba69|22|2 4,121,0,0,0,0,0,0,0,0,0,0,0,0,0,125,
scooby_state_50ba77|12|2 124,0,0,0,0,1,0,0,0,0,0,0,0,0,0,125,
scooby_state_50b390|13|-3 121,2,0,0,0,1,0,0,0,0,0,0,0,0,0,124,
scooby_state_50ba86|3|2 124,0,0,0,0,0,0,0,0,0,0,0,0,0,0,124,
scooby_state_50b390|17|-3 122,0,1,0,0,0,0,1,0,0,0,0,0,0,0,124,
scooby_state_50ba69|49|2 2,122,0,0,0,0,0,0,0,0,0,0,0,0,0,124,
scooby_state_50ba77|51|2 123,0,0,0,0,0,0,0,0,0,0,0,0,0,0,123,
scooby_state_50ba77|27|2 123,0,0,0,0,0,0,0,0,0,0,0,0,0,0,123,
scooby_state_50ba86|48|4 123,0,0,0,0,0,0,0,0,0,0,0,0,0,0,123,
scooby_state_50ba77|2|2 123,0,0,0,0,0,0,0,0,0,0,0,0,0,0,123,
scooby_state_50ba86|6|4 121,1,0,0,0,0,0,0,0,0,0,0,0,0,0,122,
scooby_state_50b390|2|-3 120,1,0,1,0,0,0,0,0,0,0,0,0,0,0,122,
scooby_state_50b390|10|-3 120,0,0,1,0,0,0,0,0,1,0,0,0,0,0,122,
scooby_state_50ba69|36|2 1,120,0,0,0,0,1,0,0,0,0,0,0,0,0,122,
scooby_state_50ba73|13|1 120,0,0,0,0,0,0,0,0,0,0,0,0,0,1,121,
scooby_state_50b9ec|19|1 0,121,0,0,0,0,0,0,0,0,0,0,0,0,0,121,
scooby_state_50ba77|38|2 121,0,0,0,0,0,0,0,0,0,0,0,0,0,0,121,
scooby_state_50ba69|24|2 5,115,0,0,0,0,0,0,0,0,0,0,0,0,0,120,
scooby_state_50ba77|18|2 120,0,0,0,0,0,0,0,0,0,0,0,0,0,0,120,
scooby_state_50ba77|52|2 119,0,1,0,0,0,0,0,0,0,0,0,0,0,0,120,
scooby_state_50ba86|32|4 120,0,0,0,0,0,0,0,0,0,0,0,0,0,0,120,
scooby_state_50ba77|3|3 119,0,0,0,1,0,0,0,0,0,0,0,0,0,0,120,
scooby_state_50ba86|5|3 120,0,0,0,0,0,0,0,0,0,0,0,0,0,0,120,
scooby_state_50b9ec|11|0 0,120,0,0,0,0,0,0,0,0,0,0,0,0,0,120,
scooby_state_50ba77|62|2 120,0,0,0,0,0,0,0,0,0,0,0,0,0,0,120,
scooby_state_50ba77|14|2 120,0,0,0,0,0,0,0,0,0,0,0,0,0,0,120,
scooby_state_50b9ec|4|2 6,113,0,0,0,0,0,0,0,0,0,0,0,0,0,119,
scooby_state_50ba77|28|2 119,0,0,0,0,0,0,0,0,0,0,0,0,0,0,119,
scooby_state_50ba77|9|2 119,0,0,0,0,0,0,0,0,0,0,0,0,0,0,119,
scooby_state_50ba86|57|4 118,0,0,0,0,0,0,0,0,1,0,0,0,0,0,119,
scooby_state_50b9e2|6|0 119,0,0,0,0,0,0,0,0,0,0,0,0,0,0,119,
scooby_state_50b390|46|-3 119,0,0,0,0,0,0,0,0,0,0,0,0,0,0,119,
scooby_state_50ba77|37|2 118,0,0,0,0,0,0,0,0,0,0,0,0,0,0,118,
scooby_state_50ba77|21|2 115,1,0,0,0,0,1,0,0,0,0,0,0,1,0,118,
scooby_state_50ba69|30|2 4,114,0,0,0,0,0,0,0,0,0,0,0,0,0,118,
scooby_state_50ba86|53|4 118,0,0,0,0,0,0,0,0,0,0,0,0,0,0,118,
scooby_state_50b390|38|-3 118,0,0,0,0,0,0,0,0,0,0,0,0,0,0,118,
scooby_state_50ba86|11|3 118,0,0,0,0,0,0,0,0,0,0,0,0,0,0,118,
scooby_state_50b390|34|-3 118,0,0,0,0,0,0,0,0,0,0,0,0,0,0,118,
scooby_state_50ba86|8|4 118,0,0,0,0,0,0,0,0,0,0,0,0,0,0,118,
scooby_state_50b9ec|4|4 0,117,0,0,0,0,0,1,0,0,0,0,0,0,0,118,
scooby_state_50ba69|45|2 2,116,0,0,0,0,0,0,0,0,0,0,0,0,0,118,
scooby_state_50ba77|34|2 117,0,0,0,0,0,0,0,0,0,0,0,0,0,0,117,
scooby_state_50b9ec|5|5 0,117,0,0,0,0,0,0,0,0,0,0,0,0,0,117,
scooby_state_50b390|4|-3 117,0,0,0,0,0,0,0,0,0,0,0,0,0,0,117,
scooby_state_50b9ec|1|1 0,117,0,0,0,0,0,0,0,0,0,0,0,0,0,117,
scooby_state_50b390|56|-3 115,1,1,0,0,0,0,0,0,0,0,0,0,0,0,117,
scooby_state_50ba86|19|4 117,0,0,0,0,0,0,0,0,0,0,0,0,0,0,117,
scooby_state_50ba86|44|4 117,0,0,0,0,0,0,0,0,0,0,0,0,0,0,117,
scooby_state_50ba69|4|0 116,1,0,0,0,0,0,0,0,0,0,0,0,0,0,117,
scooby_state_50ba77|8|3 116,0,0,0,0,0,0,0,0,0,0,0,0,0,0,116,
scooby_state_50ba69|3|2 3,112,0,0,0,0,0,0,0,0,1,0,0,0,0,116,
scooby_state_50b9ec|3|2 5,111,0,0,0,0,0,0,0,0,0,0,0,0,0,116,
scooby_state_50ba77|7|3 116,0,0,0,0,0,0,0,0,0,0,0,0,0,0,116,
scooby_state_50ba77|43|2 115,0,0,0,0,0,0,0,0,0,0,0,0,0,0,115,
scooby_state_50ba77|22|2 114,0,1,0,0,0,0,0,0,0,0,0,0,0,0,115,
scooby_state_50ba77|4|2 115,0,0,0,0,0,0,0,0,0,0,0,0,0,0,115,
scooby_state_50ba77|3|0 115,0,0,0,0,0,0,0,0,0,0,0,0,0,0,115,
scooby_state_50ba73|3|1 114,0,0,1,0,0,0,0,0,0,0,0,0,0,0,115,
scooby_state_50b9ec|9|0 1,114,0,0,0,0,0,0,0,0,0,0,0,0,0,115,
scooby_state_50b390|9|-3 114,1,0,0,0,0,0,0,0,0,0,0,0,0,0,115,
scooby_state_50ba86|15|4 115,0,0,0,0,0,0,0,0,0,0,0,0,0,0,115,
scooby_state_50ba86|39|2 115,0,0,0,0,0,0,0,0,0,0,0,0,0,0,115,
scooby_state_50ba86|9|4 115,0,0,0,0,0,0,0,0,0,0,0,0,0,0,115,
scooby_state_50b390|39|-3 113,1,0,0,0,0,0,0,0,0,0,0,0,0,0,114,
scooby_state_50b390|51|-3 112,2,0,0,0,0,0,0,0,0,0,0,0,0,0,114,
scooby_state_50ba77|50|2 113,0,0,0,0,0,0,0,0,0,0,0,0,1,0,114,
scooby_state_50ba73|62|1 114,0,0,0,0,0,0,0,0,0,0,0,0,0,0,114,
scooby_state_50b390|35|-3 112,0,0,1,0,0,0,0,0,0,0,1,0,0,0,114,
scooby_state_50ba86|21|4 113,0,0,0,0,0,0,0,0,0,0,0,0,1,0,114,
scooby_state_50ba86|62|4 113,0,0,1,0,0,0,0,0,0,0,0,0,0,0,114,
scooby_state_50ba77|49|2 114,0,0,0,0,0,0,0,0,0,0,0,0,0,0,114,
scooby_state_50ba86|36|4 114,0,0,0,0,0,0,0,0,0,0,0,0,0,0,114,
scooby_state_50b9ec|42|1 0,114,0,0,0,0,0,0,0,0,0,0,0,0,0,114,
scooby_state_50ba86|52|3 114,0,0,0,0,0,0,0,0,0,0,0,0,0,0,114,
scooby_state_50ba77|47|2 114,0,0,0,0,0,0,0,0,0,0,0,0,0,0,114,
scooby_state_50b9ec|28|1 0,114,0,0,0,0,0,0,0,0,0,0,0,0,0,114,
scooby_state_50b390|58|-3 111,1,0,1,0,0,0,0,0,0,0,0,0,0,0,113,
scooby_state_50b9ec|29|1 1,111,0,0,0,0,0,0,0,0,0,1,0,0,0,113,
scooby_state_50ba73|58|1 113,0,0,0,0,0,0,0,0,0,0,0,0,0,0,113,
scooby_state_50b390|30|-3 112,1,0,0,0,0,0,0,0,0,0,0,0,0,0,113,
scooby_state_50b390|3|-3 111,1,0,1,0,0,0,0,0,0,0,0,0,0,0,113,
scooby_state_50ba86|55|4 112,0,0,1,0,0,0,0,0,0,0,0,0,0,0,113,
scooby_state_50b390|42|-3 109,1,0,2,0,1,0,0,0,0,0,0,0,0,0,113,
scooby_state_50ba77|60|2 112,0,0,0,0,0,0,0,0,0,0,0,0,0,0,112,
scooby_state_50ba86|12|3 112,0,0,0,0,0,0,0,0,0,0,0,0,0,0,112,
scooby_state_50ba73|8|1 111,0,0,0,0,0,0,0,0,0,0,1,0,0,0,112,
scooby_state_50b9e2|5|0 112,0,0,0,0,0,0,0,0,0,0,0,0,0,0,112,
scooby_state_50ba86|13|4 112,0,0,0,0,0,0,0,0,0,0,0,0,0,0,112,
scooby_state_50b9ec|62|1 2,109,0,0,0,0,0,0,0,0,0,0,0,0,0,111,
scooby_state_50ba86|41|4 111,0,0,0,0,0,0,0,0,0,0,0,0,0,0,111,
scooby_state_50ba86|40|4 111,0,0,0,0,0,0,0,0,0,0,0,0,0,0,111,
scooby_state_50ba69|53|-3 34,77,0,0,0,0,0,0,0,0,0,0,0,0,0,111,
scooby_state_50ba86|46|4 111,0,0,0,0,0,0,0,0,0,0,0,0,0,0,111,
scooby_state_50b9ec|5|4 0,111,0,0,0,0,0,0,0,0,0,0,0,0,0,111,
scooby_state_50ba86|33|4 110,0,0,0,0,0,0,0,0,0,0,0,0,0,0,110,
scooby_state_50ba77|58|2 110,0,0,0,0,0,0,0,0,0,0,0,0,0,0,110,
scooby_state_50b390|62|1 93,17,0,0,0,0,0,0,0,0,0,0,0,0,0,110,
scooby_state_50ba69|19|2 6,104,0,0,0,0,0,0,0,0,0,0,0,0,0,110,
scooby_state_50b9ec|6|1 0,110,0,0,0,0,0,0,0,0,0,0,0,0,0,110,
scooby_state_50ba69|4|2 6,104,0,0,0,0,0,0,0,0,0,0,0,0,0,110,
scooby_state_50ba86|25|4 110,0,0,0,0,0,0,0,0,0,0,0,0,0,0,110,
scooby_state_50b390|24|-3 108,0,0,1,0,0,0,0,0,0,0,0,0,0,0,109,
scooby_state_50b9ec|31|1 0,109,0,0,0,0,0,0,0,0,0,0,0,0,0,109,
scooby_state_50ba77|63|2 109,0,0,0,0,0,0,0,0,0,0,0,0,0,0,109,
scooby_state_50ba77|6|2 109,0,0,0,0,0,0,0,0,0,0,0,0,0,0,109,
scooby_state_50ba77|5|2 109,0,0,0,0,0,0,0,0,0,0,0,0,0,0,109,
scooby_state_50b390|48|-3 109,0,0,0,0,0,0,0,0,0,0,0,0,0,0,109,
scooby_state_50b3ac|28|1 52,0,1,56,0,0,0,0,0,0,0,0,0,0,0,109,
scooby_state_50ba77|30|2 109,0,0,0,0,0,0,0,0,0,0,0,0,0,0,109,
scooby_state_50ba77|53|2 109,0,0,0,0,0,0,0,0,0,0,0,0,0,0,109,
scooby_state_50ba77|48|2 109,0,0,0,0,0,0,0,0,0,0,0,0,0,0,109,
scooby_state_50ba77|55|2 109,0,0,0,0,0,0,0,0,0,0,0,0,0,0,109,
scooby_state_50b9ec|37|1 0,108,0,0,0,0,0,0,0,0,0,0,0,0,0,108,
scooby_state_50ba77|33|2 108,0,0,0,0,0,0,0,0,0,0,0,0,0,0,108,
scooby_state_50b390|44|-3 108,0,0,0,0,0,0,0,0,0,0,0,0,0,0,108,
scooby_state_50ba86|58|4 108,0,0,0,0,0,0,0,0,0,0,0,0,0,0,108,
scooby_state_50b9ec|7|4 1,107,0,0,0,0,0,0,0,0,0,0,0,0,0,108,
scooby_state_50ba77|9|3 108,0,0,0,0,0,0,0,0,0,0,0,0,0,0,108,
scooby_state_50ba69|51|2 2,104,1,0,0,0,0,0,0,0,0,0,0,0,0,107,
scooby_state_50b390|20|-3 106,1,0,0,0,0,0,0,0,0,0,0,0,0,0,107,
scooby_state_50ba69|15|2 3,103,0,0,0,0,0,0,0,0,0,0,0,0,1,107,
scooby_state_50ba73|22|1 106,0,0,0,0,0,0,0,0,1,0,0,0,0,0,107,
scooby_state_50ba86|54|3 107,0,0,0,0,0,0,0,0,0,0,0,0,0,0,107,
scooby_state_50b9ec|12|0 0,107,0,0,0,0,0,0,0,0,0,0,0,0,0,107,
scooby_state_50b3ac|42|1 45,0,1,60,0,0,0,0,0,0,0,0,0,0,0,106,
scooby_state_50b9ec|33|1 0,106,0,0,0,0,0,0,0,0,0,0,0,0,0,106,
scooby_state_50b390|25|-3 104,2,0,0,0,0,0,0,0,0,0,0,0,0,0,106,
scooby_state_50ba69|7|0 106,0,0,0,0,0,0,0,0,0,0,0,0,0,0,106,
scooby_state_50ba69|14|2 1,105,0,0,0,0,0,0,0,0,0,0,0,0,0,106,
scooby_state_50ba86|7|3 106,0,0,0,0,0,0,0,0,0,0,0,0,0,0,106,
scooby_state_50ba77|36|2 106,0,0,0,0,0,0,0,0,0,0,0,0,0,0,106,
scooby_state_50ba86|61|4 106,0,0,0,0,0,0,0,0,0,0,0,0,0,0,106,
scooby_state_50b390|29|-3 105,0,0,0,0,0,0,0,0,0,0,0,0,0,0,105,
scooby_state_50b390|1|-3 103,1,0,1,0,0,0,0,0,0,0,0,0,0,0,105,
scooby_state_50ba86|60|4 104,0,0,0,0,0,0,0,0,0,0,0,1,0,0,105,
scooby_state_50b390|18|-3 105,0,0,0,0,0,0,0,0,0,0,0,0,0,0,105,
scooby_state_50ba73|53|1 105,0,0,0,0,0,0,0,0,0,0,0,0,0,0,105,
scooby_state_50b390|57|-3 105,0,0,0,0,0,0,0,0,0,0,0,0,0,0,105,
scooby_state_50ba77|11|2 104,0,0,0,0,0,0,0,0,1,0,0,0,0,0,105,
scooby_state_50ba69|31|2 3,101,0,0,0,1,0,0,0,0,0,0,0,0,0,105,
scooby_state_50ba5e|7|1 77,28,0,0,0,0,0,0,0,0,0,0,0,0,0,105,
scooby_state_50ba77|24|2 105,0,0,0,0,0,0,0,0,0,0,0,0,0,0,105,
scooby_state_50ba86|16|4 104,0,0,0,0,0,0,0,0,0,0,0,0,0,0,104,
scooby_state_50ba73|49|1 104,0,0,0,0,0,0,0,0,0,0,0,0,0,0,104,
scooby_state_50ba77|10|3 103,0,0,0,0,0,0,1,0,0,0,0,0,0,0,104,
scooby_state_50b3ac|2|1 35,0,1,68,0,0,0,0,0,0,0,0,0,0,0,104,
scooby_state_50ba77|3|2 104,0,0,0,0,0,0,0,0,0,0,0,0,0,0,104,
scooby_state_50ba69|37|2 0,103,0,0,0,0,0,0,0,1,0,0,0,0,0,104,
scooby_state_50b390|23|-3 104,0,0,0,0,0,0,0,0,0,0,0,0,0,0,104,
scooby_state_50ba69|52|-3 34,70,0,0,0,0,0,0,0,0,0,0,0,0,0,104,
scooby_state_50b3ac|26|1 50,0,0,54,0,0,0,0,0,0,0,0,0,0,0,104,
scooby_state_50ba69|20|2 5,99,0,0,0,0,0,0,0,0,0,0,0,0,0,104,
scooby_state_50ba86|10|4 104,0,0,0,0,0,0,0,0,0,0,0,0,0,0,104,
scooby_state_50ba69|58|2 5,99,0,0,0,0,0,0,0,0,0,0,0,0,0,104,
scooby_state_50ba86|43|4 103,0,0,0,1,0,0,0,0,0,0,0,0,0,0,104,
scooby_state_50ba86|47|2 104,0,0,0,0,0,0,0,0,0,0,0,0,0,0,104,
scooby_state_50b9ec|20|1 0,104,0,0,0,0,0,0,0,0,0,0,0,0,0,104,
scooby_state_50ba86|35|4 103,0,0,0,0,0,0,0,0,0,0,0,0,0,1,104,
scooby_state_50b9ec|57|1 0,103,0,0,0,0,0,0,0,0,0,0,0,0,0,103,
scooby_state_50b9ec|4|1 0,102,0,0,0,0,0,0,0,0,0,0,0,1,0,103,
scooby_state_50ba86|37|4 103,0,0,0,0,0,0,0,0,0,0,0,0,0,0,103,
scooby_state_50ba77|15|2 103,0,0,0,0,0,0,0,0,0,0,0,0,0,0,103,
scooby_state_50ba77|5|3 103,0,0,0,0,0,0,0,0,0,0,0,0,0,0,103,
scooby_state_50ba69|27|2 2,101,0,0,0,0,0,0,0,0,0,0,0,0,0,103,
scooby_state_50b390|16|-3 102,1,0,0,0,0,0,0,0,0,0,0,0,0,0,103,
scooby_state_50ba77|39|2 102,0,0,1,0,0,0,0,0,0,0,0,0,0,0,103,
scooby_state_50ba69|5|0 103,0,0,0,0,0,0,0,0,0,0,0,0,0,0,103,
scooby_state_50ba77|59|2 103,0,0,0,0,0,0,0,0,0,0,0,0,0,0,103,
scooby_state_50b9ec|46|1 1,101,0,0,0,0,0,0,0,0,0,0,0,0,0,102,
scooby_state_50b390|40|-3 102,0,0,0,0,0,0,0,0,0,0,0,0,0,0,102,
scooby_state_50ba69|62|2 5,97,0,0,0,0,0,0,0,0,0,0,0,0,0,102,
scooby_state_50b390|31|-3 99,2,0,0,1,0,0,0,0,0,0,0,0,0,0,102,
scooby_state_50ba86|39|4 102,0,0,0,0,0,0,0,0,0,0,0,0,0,0,102,
scooby_state_50ba69|32|2 3,99,0,0,0,0,0,0,0,0,0,0,0,0,0,102,
scooby_state_50b9ec|8|1 0,102,0,0,0,0,0,0,0,0,0,0,0,0,0,102,
scooby_state_50ba77|25|2 101,0,0,0,0,0,0,0,0,0,0,0,0,0,0,101,
scooby_state_50ba69|18|2 3,98,0,0,0,0,0,0,0,0,0,0,0,0,0,101,
scooby_state_50ba69|43|2 2,99,0,0,0,0,0,0,0,0,0,0,0,0,0,101,
scooby_state_50b390|12|-3 100,1,0,0,0,0,0,0,0,0,0,0,0,0,0,101,
scooby_state_50ba86|60|2 101,0,0,0,0,0,0,0,0,0,0,0,0,0,0,101,
scooby_state_50ba86|31|4 101,0,0,0,0,0,0,0,0,0,0,0,0,0,0,101,
scooby_state_50ba86|32|2 100,0,0,0,0,0,0,0,0,0,0,0,0,0,0,100,
scooby_state_50ba86|4|2 100,0,0,0,0,0,0,0,0,0,0,0,0,0,0,100,
scooby_state_50b390|32|-3 100,0,0,0,0,0,0,0,0,0,0,0,0,0,0,100,
scooby_state_50b3ac|7|1 43,0,0,57,0,0,0,0,0,0,0,0,0,0,0,100,
scooby_state_50b390|54|-3 99,1,0,0,0,0,0,0,0,0,0,0,0,0,0,100,
scooby_state_50ba86|7|2 100,0,0,0,0,0,0,0,0,0,0,0,0,0,0,100,
scooby_state_50ba86|8|3 99,0,0,0,0,0,0,0,0,0,0,1,0,0,0,100,
scooby_state_50ba69|13|2 3,97,0,0,0,0,0,0,0,0,0,0,0,0,0,100,
scooby_state_50ba86|42|4 100,0,0,0,0,0,0,0,0,0,0,0,0,0,0,100,
scooby_state_50b3ac|31|1 40,0,1,59,0,0,0,0,0,0,0,0,0,0,0,100,
scooby_state_50ba69|55|-3 41,59,0,0,0,0,0,0,0,0,0,0,0,0,0,100,
scooby_state_50ba86|22|4 100,0,0,0,0,0,0,0,0,0,0,0,0,0,0,100,
scooby_state_50ba69|55|2 1,99,0,0,0,0,0,0,0,0,0,0,0,0,0,100,
scooby_state_50ba69|11|2 3,96,0,0,0,0,0,0,0,0,0,0,0,0,0,99,
scooby_state_50ba73|23|1 99,0,0,0,0,0,0,0,0,0,0,0,0,0,0,99,
scooby_state_50ba69|47|2 5,94,0,0,0,0,0,0,0,0,0,0,0,0,0,99,
scooby_state_50b3ac|51|1 41,0,0,58,0,0,0,0,0,0,0,0,0,0,0,99,
scooby_state_50ba73|42|1 99,0,0,0,0,0,0,0,0,0,0,0,0,0,0,99,
scooby_state_50ba86|38|2 98,1,0,0,0,0,0,0,0,0,0,0,0,0,0,99,
scooby_state_50b3ac|20|1 56,0,1,42,0,0,0,0,0,0,0,0,0,0,0,99,
scooby_state_50ba69|58|-3 38,61,0,0,0,0,0,0,0,0,0,0,0,0,0,99,
scooby_state_50b3ac|53|1 39,0,0,60,0,0,0,0,0,0,0,0,0,0,0,99,
scooby_state_50b9ec|8|2 5,93,0,0,0,0,0,0,0,0,0,0,0,0,0,98,
scooby_state_50ba73|6|1 98,0,0,0,0,0,0,0,0,0,0,0,0,0,0,98,
scooby_state_50ba86|18|2 98,0,0,0,0,0,0,0,0,0,0,0,0,0,0,98,
scooby_state_50b390|22|-3 97,1,0,0,0,0,0,0,0,0,0,0,0,0,0,98,
scooby_state_50ba73|50|1 98,0,0,0,0,0,0,0,0,0,0,0,0,0,0,98,
scooby_state_50b390|43|-3 95,3,0,0,0,0,0,0,0,0,0,0,0,0,0,98,
scooby_state_50ba69|23|2 2,96,0,0,0,0,0,0,0,0,0,0,0,0,0,98,
scooby_state_50ba86|10|3 98,0,0,0,0,0,0,0,0,0,0,0,0,0,0,98,
scooby_state_50ba69|9|2 2,96,0,0,0,0,0,0,0,0,0,0,0,0,0,98,
scooby_state_50b9ec|47|0 0,97,0,1,0,0,0,0,0,0,0,0,0,0,0,98,
scooby_state_50ba86|54|2 98,0,0,0,0,0,0,0,0,0,0,0,0,0,0,98,
scooby_state_50b9ec|6|5 1,97,0,0,0,0,0,0,0,0,0,0,0,0,0,98,
scooby_state_50ba73|14|1 98,0,0,0,0,0,0,0,0,0,0,0,0,0,0,98,
scooby_state_50ba86|63|4 98,0,0,0,0,0,0,0,0,0,0,0,0,0,0,98,
scooby_state_50b9ec|3|3 0,98,0,0,0,0,0,0,0,0,0,0,0,0,0,98,
scooby_state_50b9ec|8|0 0,98,0,0,0,0,0,0,0,0,0,0,0,0,0,98,
scooby_state_50ba77|32|2 98,0,0,0,0,0,0,0,0,0,0,0,0,0,0,98,
scooby_state_50b9e2|15|0 97,0,0,0,0,0,0,0,0,0,0,0,0,0,0,97,
scooby_state_50ba90|0|0 97,0,0,0,0,0,0,0,0,0,0,0,0,0,0,97,
scooby_state_50ba86|2|2 97,0,0,0,0,0,0,0,0,0,0,0,0,0,0,97,
scooby_state_50ba86|52|4 96,0,0,0,0,0,0,0,0,0,1,0,0,0,0,97,
scooby_state_50ba86|14|3 97,0,0,0,0,0,0,0,0,0,0,0,0,0,0,97,
scooby_state_50ba73|56|1 97,0,0,0,0,0,0,0,0,0,0,0,0,0,0,97,
scooby_state_50ba86|23|4 96,0,0,0,0,0,0,0,1,0,0,0,0,0,0,97,
scooby_state_50ba86|41|2 95,0,0,0,0,0,0,0,0,0,0,1,0,0,0,96,
scooby_state_50b9ec|26|1 0,96,0,0,0,0,0,0,0,0,0,0,0,0,0,96,
scooby_state_50ba5e|1|1 84,12,0,0,0,0,0,0,0,0,0,0,0,0,0,96,
scooby_state_50b390|33|-3 95,0,0,1,0,0,0,0,0,0,0,0,0,0,0,96,
scooby_state_50ba86|28|4 96,0,0,0,0,0,0,0,0,0,0,0,0,0,0,96,
scooby_state_50b9ec|13|1 0,95,0,1,0,0,0,0,0,0,0,0,0,0,0,96,
scooby_state_50ba73|1|1 96,0,0,0,0,0,0,0,0,0,0,0,0,0,0,96,
scooby_state_50ba86|22|3 96,0,0,0,0,0,0,0,0,0,0,0,0,0,0,96,
scooby_state_50b3ac|24|1 38,0,0,58,0,0,0,0,0,0,0,0,0,0,0,96,
scooby_state_50b9ec|44|1 0,96,0,0,0,0,0,0,0,0,0,0,0,0,0,96,
scooby_state_50b390|53|-3 95,0,0,0,0,0,0,0,0,0,0,0,0,0,0,95,
scooby_state_50ba69|28|2 1,93,0,0,0,0,0,1,0,0,0,0,0,0,0,95,
scooby_state_50b9ec|6|4 0,95,0,0,0,0,0,0,0,0,0,0,0,0,0,95,
scooby_state_50b3ac|3|1 34,0,0,61,0,0,0,0,0,0,0,0,0,0,0,95,
scooby_state_50b390|45|-3 95,0,0,0,0,0,0,0,0,0,0,0,0,0,0,95,
scooby_state_50ba69|52|2 1,94,0,0,0,0,0,0,0,0,0,0,0,0,0,95,
scooby_state_50ba69|7|2 6,89,0,0,0,0,0,0,0,0,0,0,0,0,0,95,
scooby_state_50b3ac|23|1 39,0,0,55,0,0,0,0,1,0,0,0,0,0,0,95,
scooby_state_50ba77|23|2 95,0,0,0,0,0,0,0,0,0,0,0,0,0,0,95,
scooby_state_50ba73|40|1 95,0,0,0,0,0,0,0,0,0,0,0,0,0,0,95,
scooby_state_50ba69|56|2 3,92,0,0,0,0,0,0,0,0,0,0,0,0,0,95,
scooby_state_50b9ec|33|0 1,94,0,0,0,0,0,0,0,0,0,0,0,0,0,95,
scooby_state_50b9ec|58|1 0,95,0,0,0,0,0,0,0,0,0,0,0,0,0,95,
scooby_state_50b3ac|22|1 26,0,0,69,0,0,0,0,0,0,0,0,0,0,0,95,
scooby_state_50ba77|6|3 94,0,0,0,0,0,0,0,0,0,0,0,0,0,0,94,
scooby_state_50b9ec|22|0 0,94,0,0,0,0,0,0,0,0,0,0,0,0,0,94,
scooby_state_50b9ec|40|1 0,94,0,0,0,0,0,0,0,0,0,0,0,0,0,94,
scooby_state_50b390|41|-3 93,0,0,0,0,0,0,0,0,0,0,0,0,0,1,94,
scooby_state_50b3ac|37|1 37,0,0,57,0,0,0,0,0,0,0,0,0,0,0,94,
scooby_state_50ba86|59|4 94,0,0,0,0,0,0,0,0,0,0,0,0,0,0,94,
scooby_state_50ba86|45|4 94,0,0,0,0,0,0,0,0,0,0,0,0,0,0,94,
scooby_state_50ba69|53|2 3,91,0,0,0,0,0,0,0,0,0,0,0,0,0,94,
scooby_state_50b9ec|53|1 0,94,0,0,0,0,0,0,0,0,0,0,0,0,0,94,
scooby_state_50b3ac|52|1 37,0,0,57,0,0,0,0,0,0,0,0,0,0,0,94,
scooby_state_50b9e2|7|0 93,0,0,0,0,0,0,0,0,0,0,0,0,0,0,93,
scooby_state_50b3ac|1|1 42,0,0,51,0,0,0,0,0,0,0,0,0,0,0,93,
scooby_state_50ba73|59|1 93,0,0,0,0,0,0,0,0,0,0,0,0,0,0,93,
scooby_state_50b3ac|45|1 37,0,0,56,0,0,0,0,0,0,0,0,0,0,0,93,
scooby_state_50ba77|45|2 93,0,0,0,0,0,0,0,0,0,0,0,0,0,0,93,
scooby_state_50ba86|16|3 93,0,0,0,0,0,0,0,0,0,0,0,0,0,0,93,
scooby_state_50b9ec|55|1 0,93,0,0,0,0,0,0,0,0,0,0,0,0,0,93,
scooby_state_50b390|11|-3 93,0,0,0,0,0,0,0,0,0,0,0,0,0,0,93,
scooby_state_50ba86|34|4 93,0,0,0,0,0,0,0,0,0,0,0,0,0,0,93,
scooby_state_50ba86|38|4 93,0,0,0,0,0,0,0,0,0,0,0,0,0,0,93,
scooby_state_50ba5e|25|1 74,18,0,0,1,0,0,0,0,0,0,0,0,0,0,93,
scooby_state_50ba77|13|3 92,0,0,0,0,0,0,0,0,0,0,0,0,0,0,92,
scooby_state_50ba86|39|3 92,0,0,0,0,0,0,0,0,0,0,0,0,0,0,92,
scooby_state_50b3ac|18|1 29,0,0,63,0,0,0,0,0,0,0,0,0,0,0,92,
scooby_state_50ba86|24|2 92,0,0,0,0,0,0,0,0,0,0,0,0,0,0,92,
scooby_state_50ba77|31|2 92,0,0,0,0,0,0,0,0,0,0,0,0,0,0,92,
scooby_state_50ba73|5|1 92,0,0,0,0,0,0,0,0,0,0,0,0,0,0,92,
scooby_state_50b390|5|-3 92,0,0,0,0,0,0,0,0,0,0,0,0,0,0,92,
scooby_state_50b9ec|18|0 0,92,0,0,0,0,0,0,0,0,0,0,0,0,0,92,
scooby_state_50ba86|30|4 92,0,0,0,0,0,0,0,0,0,0,0,0,0,0,92,
scooby_state_50ba86|53|3 91,0,0,0,0,0,0,0,0,0,0,0,0,0,0,91,
scooby_state_50ba86|51|2 91,0,0,0,0,0,0,0,0,0,0,0,0,0,0,91,
scooby_state_50ba69|6|2 1,90,0,0,0,0,0,0,0,0,0,0,0,0,0,91,
scooby_state_50ba86|13|2 91,0,0,0,0,0,0,0,0,0,0,0,0,0,0,91,
scooby_state_50b9ec|2|1 0,91,0,0,0,0,0,0,0,0,0,0,0,0,0,91,
scooby_state_50cb46|34|1 91,0,0,0,0,0,0,0,0,0,0,0,0,0,0,91,
scooby_state_50ba5e|42|1 76,15,0,0,0,0,0,0,0,0,0,0,0,0,0,91,
scooby_state_50b9ec|27|0 0,91,0,0,0,0,0,0,0,0,0,0,0,0,0,91,
scooby_state_50cb46|33|1 89,0,0,0,0,0,0,0,1,1,0,0,0,0,0,91,
scooby_state_50b9ec|37|0 1,90,0,0,0,0,0,0,0,0,0,0,0,0,0,91,
scooby_state_50ba73|20|1 90,0,0,1,0,0,0,0,0,0,0,0,0,0,0,91,
scooby_state_50ba73|63|1 91,0,0,0,0,0,0,0,0,0,0,0,0,0,0,91,
scooby_state_50cb46|35|1 90,0,0,0,1,0,0,0,0,0,0,0,0,0,0,91,
scooby_state_50b390|37|-3 91,0,0,0,0,0,0,0,0,0,0,0,0,0,0,91,
scooby_state_50b9ec|15|1 0,90,0,0,0,0,0,0,0,0,0,0,0,0,0,90,
scooby_state_50cb46|48|1 90,0,0,0,0,0,0,0,0,0,0,0,0,0,0,90,
scooby_state_50cb46|63|1 90,0,0,0,0,0,0,0,0,0,0,0,0,0,0,90,
scooby_state_50cb46|57|1 90,0,0,0,0,0,0,0,0,0,0,0,0,0,0,90,
scooby_state_50cb46|45|1 90,0,0,0,0,0,0,0,0,0,0,0,0,0,0,90,
scooby_state_50cb46|55|1 90,0,0,0,0,0,0,0,0,0,0,0,0,0,0,90,
scooby_state_50cb46|44|1 90,0,0,0,0,0,0,0,0,0,0,0,0,0,0,90,
scooby_state_50cb46|37|1 90,0,0,0,0,0,0,0,0,0,0,0,0,0,0,90,
scooby_state_50cb46|2|1 89,0,0,0,0,0,1,0,0,0,0,0,0,0,0,90,
scooby_state_50b9ec|60|1 0,89,0,0,0,0,0,0,0,1,0,0,0,0,0,90,
scooby_state_50cb46|49|1 90,0,0,0,0,0,0,0,0,0,0,0,0,0,0,90,
scooby_state_50cb46|54|1 89,0,1,0,0,0,0,0,0,0,0,0,0,0,0,90,
scooby_state_50cb46|59|1 90,0,0,0,0,0,0,0,0,0,0,0,0,0,0,90,
scooby_state_50ba86|9|3 89,0,0,0,0,0,0,0,0,0,0,1,0,0,0,90,
scooby_state_50ba73|11|1 89,0,0,0,0,0,0,0,0,0,0,1,0,0,0,90,
scooby_state_50cb46|61|1 90,0,0,0,0,0,0,0,0,0,0,0,0,0,0,90,
scooby_state_50ba86|42|2 90,0,0,0,0,0,0,0,0,0,0,0,0,0,0,90,
scooby_state_50cb46|50|1 90,0,0,0,0,0,0,0,0,0,0,0,0,0,0,90,
scooby_state_50ba73|45|1 90,0,0,0,0,0,0,0,0,0,0,0,0,0,0,90,
scooby_state_50cb46|62|1 89,0,0,0,0,0,0,0,0,0,1,0,0,0,0,90,
scooby_state_50cb46|53|1 90,0,0,0,0,0,0,0,0,0,0,0,0,0,0,90,
scooby_state_50ba5e|14|1 80,9,0,0,1,0,0,0,0,0,0,0,0,0,0,90,
scooby_state_50b9ec|35|1 1,89,0,0,0,0,0,0,0,0,0,0,0,0,0,90,
scooby_state_50cb46|51|1 90,0,0,0,0,0,0,0,0,0,0,0,0,0,0,90,
scooby_state_50ba86|50|3 90,0,0,0,0,0,0,0,0,0,0,0,0,0,0,90,
scooby_state_50cb46|56|1 88,0,0,0,1,0,1,0,0,0,0,0,0,0,0,90,
scooby_state_50cb46|47|1 90,0,0,0,0,0,0,0,0,0,0,0,0,0,0,90,
scooby_state_50cb46|0|0 90,0,0,0,0,0,0,0,0,0,0,0,0,0,0,90,
scooby_state_50cb46|1|1 89,0,0,1,0,0,0,0,0,0,0,0,0,0,0,90,
scooby_state_50b390|55|-3 90,0,0,0,0,0,0,0,0,0,0,0,0,0,0,90,
scooby_state_50ba86|49|2 90,0,0,0,0,0,0,0,0,0,0,0,0,0,0,90,
scooby_state_50b9ec|21|1 0,90,0,0,0,0,0,0,0,0,0,0,0,0,0,90,
scooby_state_50cb46|58|1 90,0,0,0,0,0,0,0,0,0,0,0,0,0,0,90,
scooby_state_50cb46|39|1 90,0,0,0,0,0,0,0,0,0,0,0,0,0,0,90,
scooby_state_50cb46|52|1 90,0,0,0,0,0,0,0,0,0,0,0,0,0,0,90,
scooby_state_50cb46|38|1 90,0,0,0,0,0,0,0,0,0,0,0,0,0,0,90,
scooby_state_50cb46|46|1 90,0,0,0,0,0,0,0,0,0,0,0,0,0,0,90,
scooby_state_50b3ac|12|1 34,0,0,56,0,0,0,0,0,0,0,0,0,0,0,90,
scooby_state_50ba73|39|1 90,0,0,0,0,0,0,0,0,0,0,0,0,0,0,90,
scooby_state_50cb46|60|1 90,0,0,0,0,0,0,0,0,0,0,0,0,0,0,90,
scooby_state_50cb46|43|1 90,0,0,0,0,0,0,0,0,0,0,0,0,0,0,90,
scooby_state_50cb46|3|1 90,0,0,0,0,0,0,0,0,0,0,0,0,0,0,90,
scooby_state_50cb46|36|1 90,0,0,0,0,0,0,0,0,0,0,0,0,0,0,90,
scooby_state_50b9ec|22|1 0,89,0,0,0,0,0,0,0,0,0,0,1,0,0,90,
scooby_state_50cb46|19|1 89,0,0,0,0,0,0,0,0,0,0,0,0,0,0,89,
scooby_state_50ba86|63|2 89,0,0,0,0,0,0,0,0,0,0,0,0,0,0,89,
scooby_state_50ba73|46|1 88,0,0,0,0,0,0,1,0,0,0,0,0,0,0,89,
scooby_state_50cb46|42|1 89,0,0,0,0,0,0,0,0,0,0,0,0,0,0,89,
scooby_state_50cb46|10|1 88,0,0,0,0,0,0,1,0,0,0,0,0,0,0,89,
scooby_state_50cb46|6|1 89,0,0,0,0,0,0,0,0,0,0,0,0,0,0,89,
scooby_state_50cb46|18|1 88,0,0,0,0,0,0,0,0,0,0,0,0,0,1,89,
scooby_state_50cb46|5|1 89,0,0,0,0,0,0,0,0,0,0,0,0,0,0,89,
scooby_state_50b3ac|36|1 37,0,0,52,0,0,0,0,0,0,0,0,0,0,0,89,
scooby_state_50cb46|8|1 89,0,0,0,0,0,0,0,0,0,0,0,0,0,0,89,
scooby_state_50cb46|14|1 89,0,0,0,0,0,0,0,0,0,0,0,0,0,0,89,
scooby_state_50cb46|40|1 89,0,0,0,0,0,0,0,0,0,0,0,0,0,0,89,
scooby_state_50cb46|41|1 88,1,0,0,0,0,0,0,0,0,0,0,0,0,0,89,
scooby_state_50cb46|4|1 89,0,0,0,0,0,0,0,0,0,0,0,0,0,0,89,
scooby_state_50cb46|9|1 89,0,0,0,0,0,0,0,0,0,0,0,0,0,0,89,
scooby_state_50cb46|16|1 89,0,0,0,0,0,0,0,0,0,0,0,0,0,0,89,
scooby_state_50cb46|12|1 89,0,0,0,0,0,0,0,0,0,0,0,0,0,0,89,
scooby_state_50cb46|15|1 89,0,0,0,0,0,0,0,0,0,0,0,0,0,0,89,
scooby_state_50b3ac|10|1 35,0,0,54,0,0,0,0,0,0,0,0,0,0,0,89,
scooby_state_50cb46|13|1 89,0,0,0,0,0,0,0,0,0,0,0,0,0,0,89,
scooby_state_50b390|59|-3 89,0,0,0,0,0,0,0,0,0,0,0,0,0,0,89,
scooby_state_50cb46|7|1 88,0,0,0,1,0,0,0,0,0,0,0,0,0,0,89,
scooby_state_50b9ec|57|9 0,88,0,0,0,0,0,0,0,1,0,0,0,0,0,89,
scooby_state_50cb46|17|1 87,0,0,1,0,0,0,0,0,1,0,0,0,0,0,89,
scooby_state_50b9ec|17|1 0,89,0,0,0,0,0,0,0,0,0,0,0,0,0,89,
scooby_state_50cb46|11|1 89,0,0,0,0,0,0,0,0,0,0,0,0,0,0,89,
scooby_state_50b390|36|-3 87,1,0,1,0,0,0,0,0,0,0,0,0,0,0,89,
scooby_state_50ba69|8|2 3,85,0,0,0,0,0,0,0,0,0,0,0,0,0,88,
scooby_state_50cb46|28|1 88,0,0,0,0,0,0,0,0,0,0,0,0,0,0,88,
scooby_state_50cb46|29|1 88,0,0,0,0,0,0,0,0,0,0,0,0,0,0,88,
scooby_state_50cb46|23|1 87,0,0,0,0,0,0,0,0,0,0,0,0,1,0,88,
scooby_state_50b9ec|56|0 0,88,0,0,0,0,0,0,0,0,0,0,0,0,0,88,
scooby_state_50cb46|26|1 87,0,0,0,0,1,0,0,0,0,0,0,0,0,0,88,
scooby_state_50b3ac|5|1 36,0,0,52,0,0,0,0,0,0,0,0,0,0,0,88,
scooby_state_50cb46|27|1 88,0,0,0,0,0,0,0,0,0,0,0,0,0,0,88,
scooby_state_50ba77|16|2 88,0,0,0,0,0,0,0,0,0,0,0,0,0,0,88,
scooby_state_50b3ac|59|1 25,0,0,63,0,0,0,0,0,0,0,0,0,0,0,88,
scooby_state_50b9e2|61|0 88,0,0,0,0,0,0,0,0,0,0,0,0,0,0,88,
scooby_state_50cb46|31|1 88,0,0,0,0,0,0,0,0,0,0,0,0,0,0,88,
scooby_state_50b9ec|20|0 0,88,0,0,0,0,0,0,0,0,0,0,0,0,0,88,
scooby_state_50b3ac|40|1 42,0,0,45,0,0,1,0,0,0,0,0,0,0,0,88,
scooby_state_50ba86|49|4 88,0,0,0,0,0,0,0,0,0,0,0,0,0,0,88,
scooby_state_50cb46|22|1 88,0,0,0,0,0,0,0,0,0,0,0,0,0,0,88,
scooby_state_50cb46|21|1 88,0,0,0,0,0,0,0,0,0,0,0,0,0,0,88,
scooby_state_50cb46|25|1 88,0,0,0,0,0,0,0,0,0,0,0,0,0,0,88,
scooby_state_50cb46|30|1 88,0,0,0,0,0,0,0,0,0,0,0,0,0,0,88,
scooby_state_50ba69|6|0 86,2,0,0,0,0,0,0,0,0,0,0,0,0,0,88,
scooby_state_50ba86|6|0 88,0,0,0,0,0,0,0,0,0,0,0,0,0,0,88,
scooby_state_50cb46|24|1 88,0,0,0,0,0,0,0,0,0,0,0,0,0,0,88,
scooby_state_50cb46|20|1 87,0,0,0,0,0,0,0,0,0,0,0,1,0,0,88,
scooby_state_50cb46|32|1 88,0,0,0,0,0,0,0,0,0,0,0,0,0,0,88,
scooby_state_50ba86|57|3 87,0,0,0,0,0,0,0,0,0,0,0,0,0,0,87,
scooby_state_50ba77|10|4 87,0,0,0,0,0,0,0,0,0,0,0,0,0,0,87,
scooby_state_50b3ac|61|1 35,0,0,52,0,0,0,0,0,0,0,0,0,0,0,87,
scooby_state_50ba77|4|0 87,0,0,0,0,0,0,0,0,0,0,0,0,0,0,87,
scooby_state_50ba69|35|2 4,83,0,0,0,0,0,0,0,0,0,0,0,0,0,87,
scooby_state_50b9ec|38|1 1,86,0,0,0,0,0,0,0,0,0,0,0,0,0,87,
scooby_state_50b3ac|63|1 35,1,0,51,0,0,0,0,0,0,0,0,0,0,0,87,
scooby_state_50b390|28|-3 86,0,0,0,0,0,0,0,0,0,0,1,0,0,0,87,
scooby_state_50b9e2|10|0 86,0,0,0,0,0,0,0,0,0,1,0,0,0,0,87,
scooby_state_50ba86|26|4 87,0,0,0,0,0,0,0,0,0,0,0,0,0,0,87,
scooby_state_50ba86|27|3 87,0,0,0,0,0,0,0,0,0,0,0,0,0,0,87,
scooby_state_50b3ac|38|1 32,0,0,55,0,0,0,0,0,0,0,0,0,0,0,87,
scooby_state_50b9ec|36|1 0,85,0,0,1,0,0,0,0,0,0,1,0,0,0,87,
scooby_state_50b9ec|10|0 0,87,0,0,0,0,0,0,0,0,0,0,0,0,0,87,
scooby_state_50b9ec|7|5 0,87,0,0,0,0,0,0,0,0,0,0,0,0,0,87,
scooby_state_50ba86|13|3 87,0,0,0,0,0,0,0,0,0,0,0,0,0,0,87,
scooby_state_50ba69|38|2 1,85,0,0,0,0,0,0,0,0,0,0,0,0,0,86,
scooby_state_50b9ec|5|1 0,86,0,0,0,0,0,0,0,0,0,0,0,0,0,86,
scooby_state_50ba86|31|3 86,0,0,0,0,0,0,0,0,0,0,0,0,0,0,86,
scooby_state_50b9e2|63|0 86,0,0,0,0,0,0,0,0,0,0,0,0,0,0,86,
scooby_state_50b9e2|60|-3 86,0,0,0,0,0,0,0,0,0,0,0,0,0,0,86,
scooby_state_50ba86|34|2 84,1,1,0,0,0,0,0,0,0,0,0,0,0,0,86,
scooby_state_50ba86|48|3 86,0,0,0,0,0,0,0,0,0,0,0,0,0,0,86,
scooby_state_50ba86|27|2 86,0,0,0,0,0,0,0,0,0,0,0,0,0,0,86,
scooby_state_50ba69|12|2 3,83,0,0,0,0,0,0,0,0,0,0,0,0,0,86,
scooby_state_50b9ec|10|1 0,86,0,0,0,0,0,0,0,0,0,0,0,0,0,86,
scooby_state_50ba69|48|2 4,82,0,0,0,0,0,0,0,0,0,0,0,0,0,86,
scooby_state_50ba86|25|3 86,0,0,0,0,0,0,0,0,0,0,0,0,0,0,86,
scooby_state_50b9ec|28|0 1,85,0,0,0,0,0,0,0,0,0,0,0,0,0,86,
scooby_state_50b9e2|14|0 86,0,0,0,0,0,0,0,0,0,0,0,0,0,0,86,
scooby_state_50ba77|34|3 86,0,0,0,0,0,0,0,0,0,0,0,0,0,0,86,
scooby_state_50b9ec|61|1 0,86,0,0,0,0,0,0,0,0,0,0,0,0,0,86,
scooby_state_50b3ac|17|1 42,0,0,43,0,0,0,0,0,0,0,0,0,0,1,86,
scooby_state_50b9e2|59|-3 86,0,0,0,0,0,0,0,0,0,0,0,0,0,0,86,
scooby_state_50ba69|33|2 4,82,0,0,0,0,0,0,0,0,0,0,0,0,0,86,
scooby_state_50b9ec|44|9 0,85,0,0,0,0,0,0,0,0,0,0,0,0,0,85,
scooby_state_50ba73|12|1 85,0,0,0,0,0,0,0,0,0,0,0,0,0,0,85,
scooby_state_50b9ec|9|1 0,85,0,0,0,0,0,0,0,0,0,0,0,0,0,85,
scooby_state_50b9ec|7|1 0,85,0,0,0,0,0,0,0,0,0,0,0,0,0,85,
scooby_state_50b9ec|41|1 0,85,0,0,0,0,0,0,0,0,0,0,0,0,0,85,
scooby_state_50ba86|8|2 85,0,0,0,0,0,0,0,0,0,0,0,0,0,0,85,
scooby_state_50ba86|22|2 85,0,0,0,0,0,0,0,0,0,0,0,0,0,0,85,
scooby_state_50ba86|33|3 85,0,0,0,0,0,0,0,0,0,0,0,0,0,0,85,
scooby_state_50b9ec|13|0 0,85,0,0,0,0,0,0,0,0,0,0,0,0,0,85,
scooby_state_50b9ec|51|1 0,85,0,0,0,0,0,0,0,0,0,0,0,0,0,85,
scooby_state_50ba86|35|2 85,0,0,0,0,0,0,0,0,0,0,0,0,0,0,85,
scooby_state_50b3ac|44|1 25,0,0,58,0,0,0,0,0,0,0,0,1,0,0,84,
scooby_state_50b9ec|63|0 0,84,0,0,0,0,0,0,0,0,0,0,0,0,0,84,
scooby_state_50b9ec|24|0 0,84,0,0,0,0,0,0,0,0,0,0,0,0,0,84,
scooby_state_50b9ec|12|1 0,84,0,0,0,0,0,0,0,0,0,0,0,0,0,84,
scooby_state_50b390|6|-3 84,0,0,0,0,0,0,0,0,0,0,0,0,0,0,84,
scooby_state_50ba77|57|2 84,0,0,0,0,0,0,0,0,0,0,0,0,0,0,84,
scooby_state_50b9ec|56|1 0,84,0,0,0,0,0,0,0,0,0,0,0,0,0,84,
scooby_state_50ba86|5|0 84,0,0,0,0,0,0,0,0,0,0,0,0,0,0,84,
scooby_state_50ba73|48|1 84,0,0,0,0,0,0,0,0,0,0,0,0,0,0,84,
scooby_state_50ba69|59|2 1,83,0,0,0,0,0,0,0,0,0,0,0,0,0,84,
scooby_state_50b3ac|21|1 34,0,1,49,0,0,0,0,0,0,0,0,0,0,0,84,
scooby_state_50b3ac|56|1 34,0,0,50,0,0,0,0,0,0,0,0,0,0,0,84,
scooby_state_50ba5e|11|1 71,13,0,0,0,0,0,0,0,0,0,0,0,0,0,84,
scooby_state_50ba69|50|2 3,81,0,0,0,0,0,0,0,0,0,0,0,0,0,84,
scooby_state_50b3ac|43|1 38,0,0,46,0,0,0,0,0,0,0,0,0,0,0,84,
scooby_state_50ba5e|2|1 75,7,0,1,0,0,0,0,0,0,0,0,0,0,0,83,
scooby_state_50ba86|56|3 83,0,0,0,0,0,0,0,0,0,0,0,0,0,0,83,
scooby_state_50ba73|31|1 83,0,0,0,0,0,0,0,0,0,0,0,0,0,0,83,
scooby_state_50ba86|15|2 82,0,0,0,1,0,0,0,0,0,0,0,0,0,0,83,
scooby_state_50ba5e|13|1 72,11,0,0,0,0,0,0,0,0,0,0,0,0,0,83,
scooby_state_50ba86|52|2 83,0,0,0,0,0,0,0,0,0,0,0,0,0,0,83,
scooby_state_50b9ec|21|0 0,83,0,0,0,0,0,0,0,0,0,0,0,0,0,83,
scooby_state_50ba86|17|2 83,0,0,0,0,0,0,0,0,0,0,0,0,0,0,83,
scooby_state_50ba69|57|2 4,79,0,0,0,0,0,0,0,0,0,0,0,0,0,83,
scooby_state_50b9ec|11|1 0,83,0,0,0,0,0,0,0,0,0,0,0,0,0,83,
scooby_state_50ba86|57|1 83,0,0,0,0,0,0,0,0,0,0,0,0,0,0,83,
scooby_state_50ba86|37|3 83,0,0,0,0,0,0,0,0,0,0,0,0,0,0,83,
scooby_state_50b9ec|43|1 0,83,0,0,0,0,0,0,0,0,0,0,0,0,0,83,
scooby_state_50ba77|38|3 81,0,0,0,0,0,0,1,0,0,0,0,1,0,0,83,
scooby_state_50b3ac|35|1 36,0,0,47,0,0,0,0,0,0,0,0,0,0,0,83,
scooby_state_50b9e2|22|0 83,0,0,0,0,0,0,0,0,0,0,0,0,0,0,83,
scooby_state_50ba5e|61|1 73,9,0,0,1,0,0,0,0,0,0,0,0,0,0,83,
scooby_state_50ba73|34|1 83,0,0,0,0,0,0,0,0,0,0,0,0,0,0,83,
scooby_state_50ba73|52|1 82,0,0,0,0,0,0,0,0,0,0,0,0,0,0,82,
scooby_state_50ba86|26|2 82,0,0,0,0,0,0,0,0,0,0,0,0,0,0,82,
scooby_state_50ba69|26|2 2,80,0,0,0,0,0,0,0,0,0,0,0,0,0,82,
scooby_state_50ba86|60|1 82,0,0,0,0,0,0,0,0,0,0,0,0,0,0,82,
scooby_state_50b9ec|25|0 0,82,0,0,0,0,0,0,0,0,0,0,0,0,0,82,
scooby_state_50ba86|61|2 82,0,0,0,0,0,0,0,0,0,0,0,0,0,0,82,
scooby_state_50ba86|6|2 81,1,0,0,0,0,0,0,0,0,0,0,0,0,0,82,
scooby_state_50ba86|9|2 82,0,0,0,0,0,0,0,0,0,0,0,0,0,0,82,
scooby_state_50ba69|16|2 5,77,0,0,0,0,0,0,0,0,0,0,0,0,0,82,
scooby_state_50ba86|18|3 82,0,0,0,0,0,0,0,0,0,0,0,0,0,0,82,
scooby_state_50ba86|38|3 82,0,0,0,0,0,0,0,0,0,0,0,0,0,0,82,
scooby_state_50ba86|17|3 82,0,0,0,0,0,0,0,0,0,0,0,0,0,0,82,
scooby_state_50ba69|29|2 2,80,0,0,0,0,0,0,0,0,0,0,0,0,0,82,
scooby_state_50b3ac|48|1 28,0,0,54,0,0,0,0,0,0,0,0,0,0,0,82,
scooby_state_50ba86|20|4 82,0,0,0,0,0,0,0,0,0,0,0,0,0,0,82,
scooby_state_50ba73|7|1 82,0,0,0,0,0,0,0,0,0,0,0,0,0,0,82,
scooby_state_50ba5e|10|1 70,11,0,0,0,0,1,0,0,0,0,0,0,0,0,82,
scooby_state_50b9ec|47|1 0,82,0,0,0,0,0,0,0,0,0,0,0,0,0,82,
scooby_state_50ba86|27|4 82,0,0,0,0,0,0,0,0,0,0,0,0,0,0,82,
scooby_state_50b9ec|17|0 0,81,0,0,0,0,0,0,0,0,0,0,0,0,0,81,
scooby_state_50ba86|23|3 81,0,0,0,0,0,0,0,0,0,0,0,0,0,0,81,
scooby_state_50b9ec|49|1 0,81,0,0,0,0,0,0,0,0,0,0,0,0,0,81,
scooby_state_50b390|21|-3 81,0,0,0,0,0,0,0,0,0,0,0,0,0,0,81,
scooby_state_50b9ec|36|0 0,80,0,0,0,0,0,0,0,0,1,0,0,0,0,81,
scooby_state_50ba86|61|3 81,0,0,0,0,0,0,0,0,0,0,0,0,0,0,81,
scooby_state_50ba86|33|2 81,0,0,0,0,0,0,0,0,0,0,0,0,0,0,81,
scooby_state_50ba69|44|2 4,77,0,0,0,0,0,0,0,0,0,0,0,0,0,81,
scooby_state_50b9ec|15|0 0,81,0,0,0,0,0,0,0,0,0,0,0,0,0,81,
scooby_state_50b9e2|58|-5 80,0,0,0,0,0,1,0,0,0,0,0,0,0,0,81,
scooby_state_50ba86|11|2 81,0,0,0,0,0,0,0,0,0,0,0,0,0,0,81,
scooby_state_50ba5e|41|1 68,13,0,0,0,0,0,0,0,0,0,0,0,0,0,81,
scooby_state_50ba69|5|2 1,80,0,0,0,0,0,0,0,0,0,0,0,0,0,81,
scooby_state_50b3ac|39|1 32,0,0,49,0,0,0,0,0,0,0,0,0,0,0,81,
scooby_state_50ba77|45|3 80,0,0,0,0,0,0,0,0,0,0,0,1,0,0,81,
scooby_state_50ba5e|56|1 75,6,0,0,0,0,0,0,0,0,0,0,0,0,0,81,
scooby_state_50ba77|31|3 81,0,0,0,0,0,0,0,0,0,0,0,0,0,0,81,
scooby_state_50ba86|40|3 81,0,0,0,0,0,0,0,0,0,0,0,0,0,0,81,
scooby_state_50ba86|28|2 79,0,0,0,0,0,0,0,0,0,0,0,0,0,1,80,
scooby_state_50b3ac|62|1 34,0,0,46,0,0,0,0,0,0,0,0,0,0,0,80,
scooby_state_50ba86|24|4 80,0,0,0,0,0,0,0,0,0,0,0,0,0,0,80,
scooby_state_50b3ac|50|1 39,0,0,40,0,0,1,0,0,0,0,0,0,0,0,80,
scooby_state_50b9ec|14|1 0,80,0,0,0,0,0,0,0,0,0,0,0,0,0,80,
scooby_state_50b9ec|49|0 0,80,0,0,0,0,0,0,0,0,0,0,0,0,0,80,
scooby_state_50b9e2|35|-5 80,0,0,0,0,0,0,0,0,0,0,0,0,0,0,80,
scooby_state_50ba73|32|1 80,0,0,0,0,0,0,0,0,0,0,0,0,0,0,80,
scooby_state_50b9ec|32|1 0,80,0,0,0,0,0,0,0,0,0,0,0,0,0,80,
scooby_state_50b9ec|13|4 1,79,0,0,0,0,0,0,0,0,0,0,0,0,0,80,
scooby_state_50b390|49|-3 79,0,0,0,0,0,0,0,0,0,0,0,0,0,1,80,
scooby_state_50b9ec|50|1 0,80,0,0,0,0,0,0,0,0,0,0,0,0,0,80,
scooby_state_50ba86|5|2 80,0,0,0,0,0,0,0,0,0,0,0,0,0,0,80,
scooby_state_50ba5e|58|1 67,12,0,0,0,0,0,0,0,0,0,1,0,0,0,80,
scooby_state_50b3ac|16|1 30,0,0,50,0,0,0,0,0,0,0,0,0,0,0,80,
scooby_state_50ba77|24|3 79,0,0,0,0,0,0,0,0,0,1,0,0,0,0,80,
scooby_state_50b9ec|16|7 0,80,0,0,0,0,0,0,0,0,0,0,0,0,0,80,
scooby_state_50ba86|18|4 80,0,0,0,0,0,0,0,0,0,0,0,0,0,0,80,
scooby_state_50b9ec|52|9 0,79,0,0,0,0,0,0,0,0,0,0,0,0,0,79,
scooby_state_50b3ac|29|1 41,0,0,38,0,0,0,0,0,0,0,0,0,0,0,79,
scooby_state_50b9ec|62|0 0,79,0,0,0,0,0,0,0,0,0,0,0,0,0,79,
scooby_state_50b9ec|53|0 1,78,0,0,0,0,0,0,0,0,0,0,0,0,0,79,
scooby_state_50ba73|38|1 77,0,1,0,0,0,0,1,0,0,0,0,0,0,0,79,
scooby_state_50ba86|29|4 79,0,0,0,0,0,0,0,0,0,0,0,0,0,0,79,
scooby_state_50ba5e|60|1 65,14,0,0,0,0,0,0,0,0,0,0,0,0,0,79,
scooby_state_50b9e2|60|8 79,0,0,0,0,0,0,0,0,0,0,0,0,0,0,79,
scooby_state_50b9ec|51|0 1,78,0,0,0,0,0,0,0,0,0,0,0,0,0,79,
scooby_state_50ba5e|8|1 65,14,0,0,0,0,0,0,0,0,0,0,0,0,0,79,
scooby_state_50ba86|29|2 79,0,0,0,0,0,0,0,0,0,0,0,0,0,0,79,
scooby_state_50b9ec|34|0 0,79,0,0,0,0,0,0,0,0,0,0,0,0,0,79,
scooby_state_50b3ac|34|1 36,0,0,43,0,0,0,0,0,0,0,0,0,0,0,79,
scooby_state_50ba73|54|1 78,0,0,0,0,0,1,0,0,0,0,0,0,0,0,79,
scooby_state_50b9e2|9|0 79,0,0,0,0,0,0,0,0,0,0,0,0,0,0,79,
scooby_state_50b9ec|19|0 0,78,0,0,0,0,0,0,0,0,0,0,0,0,0,78,
scooby_state_50ba86|47|3 78,0,0,0,0,0,0,0,0,0,0,0,0,0,0,78,
scooby_state_50ba73|28|1 78,0,0,0,0,0,0,0,0,0,0,0,0,0,0,78,
scooby_state_50ba73|26|1 78,0,0,0,0,0,0,0,0,0,0,0,0,0,0,78,
scooby_state_50ba86|53|2 77,1,0,0,0,0,0,0,0,0,0,0,0,0,0,78,
scooby_state_50b9ec|14|4 0,78,0,0,0,0,0,0,0,0,0,0,0,0,0,78,
scooby_state_50b390|59|1 72,6,0,0,0,0,0,0,0,0,0,0,0,0,0,78,
scooby_state_50b9ec|40|0 0,78,0,0,0,0,0,0,0,0,0,0,0,0,0,78,
scooby_state_50ba86|30|2 78,0,0,0,0,0,0,0,0,0,0,0,0,0,0,78,
scooby_state_50ba5e|44|1 63,14,0,0,1,0,0,0,0,0,0,0,0,0,0,78,
scooby_state_50ba86|32|3 78,0,0,0,0,0,0,0,0,0,0,0,0,0,0,78,
scooby_state_50b9ec|63|9 0,78,0,0,0,0,0,0,0,0,0,0,0,0,0,78,
scooby_state_50ba5e|28|1 58,20,0,0,0,0,0,0,0,0,0,0,0,0,0,78,
scooby_state_50ba5e|49|1 74,4,0,0,0,0,0,0,0,0,0,0,0,0,0,78,
scooby_state_50b9e2|53|0 78,0,0,0,0,0,0,0,0,0,0,0,0,0,0,78,
scooby_state_50ba69|21|0 76,2,0,0,0,0,0,0,0,0,0,0,0,0,0,78,
scooby_state_50b3ac|60|1 20,0,0,58,0,0,0,0,0,0,0,0,0,0,0,78,
scooby_state_50ba86|4|0 77,0,0,0,0,0,0,0,0,0,0,0,0,0,0,77,
scooby_state_50ba73|16|1 77,0,0,0,0,0,0,0,0,0,0,0,0,0,0,77,
scooby_state_50b9ec|16|1 0,77,0,0,0,0,0,0,0,0,0,0,0,0,0,77,
scooby_state_50ba73|10|1 77,0,0,0,0,0,0,0,0,0,0,0,0,0,0,77,
scooby_state_50ba86|36|3 77,0,0,0,0,0,0,0,0,0,0,0,0,0,0,77,
scooby_state_50ba86|51|4 77,0,0,0,0,0,0,0,0,0,0,0,0,0,0,77,
scooby_state_50ba69|10|2 2,75,0,0,0,0,0,0,0,0,0,0,0,0,0,77,
scooby_state_50ba73|18|1 77,0,0,0,0,0,0,0,0,0,0,0,0,0,0,77,
scooby_state_50ba69|21|2 3,74,0,0,0,0,0,0,0,0,0,0,0,0,0,77,
scooby_state_50ba5e|54|1 62,14,0,0,0,0,0,0,0,0,0,0,0,1,0,77,
scooby_state_50b9ec|30|1 1,76,0,0,0,0,0,0,0,0,0,0,0,0,0,77,
scooby_state_50ba69|41|2 4,73,0,0,0,0,0,0,0,0,0,0,0,0,0,77,
scooby_state_50ba5e|39|1 66,11,0,0,0,0,0,0,0,0,0,0,0,0,0,77,
scooby_state_50ba86|61|-2 77,0,0,0,0,0,0,0,0,0,0,0,0,0,0,77,
scooby_state_50ba77|22|3 77,0,0,0,0,0,0,0,0,0,0,0,0,0,0,77,
scooby_state_50b3ac|11|1 34,0,0,43,0,0,0,0,0,0,0,0,0,0,0,77,
scooby_state_50b9ec|39|1 0,76,0,0,0,0,1,0,0,0,0,0,0,0,0,77,
scooby_state_50ba86|41|3 77,0,0,0,0,0,0,0,0,0,0,0,0,0,0,77,
scooby_state_50ba86|9|0 77,0,0,0,0,0,0,0,0,0,0,0,0,0,0,77,
scooby_state_50b9ec|8|5 0,77,0,0,0,0,0,0,0,0,0,0,0,0,0,77,
scooby_state_50ba69|25|2 2,74,0,0,1,0,0,0,0,0,0,0,0,0,0,77,
scooby_state_50ba5e|31|1 57,19,0,0,0,0,0,0,0,0,0,0,0,0,0,76,
scooby_state_50ba73|25|1 76,0,0,0,0,0,0,0,0,0,0,0,0,0,0,76,
scooby_state_50ba5e|46|1 59,17,0,0,0,0,0,0,0,0,0,0,0,0,0,76,
scooby_state_50ba86|21|3 76,0,0,0,0,0,0,0,0,0,0,0,0,0,0,76,
scooby_state_50b9ec|59|1 0,76,0,0,0,0,0,0,0,0,0,0,0,0,0,76,
scooby_state_50ba86|63|1 76,0,0,0,0,0,0,0,0,0,0,0,0,0,0,76,
scooby_state_50ba86|10|2 76,0,0,0,0,0,0,0,0,0,0,0,0,0,0,76,
scooby_state_50b9ec|35|0 0,76,0,0,0,0,0,0,0,0,0,0,0,0,0,76,
scooby_state_50ba86|19|2 76,0,0,0,0,0,0,0,0,0,0,0,0,0,0,76,
scooby_state_50ba69|39|2 1,75,0,0,0,0,0,0,0,0,0,0,0,0,0,76,
scooby_state_50ba77|6|4 75,0,0,1,0,0,0,0,0,0,0,0,0,0,0,76,
scooby_state_50ba86|44|2 76,0,0,0,0,0,0,0,0,0,0,0,0,0,0,76,
scooby_state_50ba77|5|0 76,0,0,0,0,0,0,0,0,0,0,0,0,0,0,76,
scooby_state_50ba86|15|3 76,0,0,0,0,0,0,0,0,0,0,0,0,0,0,76,
scooby_state_50b9e2|59|-4 76,0,0,0,0,0,0,0,0,0,0,0,0,0,0,76,
scooby_state_50ba69|46|2 1,75,0,0,0,0,0,0,0,0,0,0,0,0,0,76,
scooby_state_50ba69|30|-3 22,53,0,0,0,0,0,0,0,0,0,1,0,0,0,76,
scooby_state_50b3ac|13|1 33,0,0,43,0,0,0,0,0,0,0,0,0,0,0,76,
scooby_state_50b9ec|23|9 0,76,0,0,0,0,0,0,0,0,0,0,0,0,0,76,
scooby_state_50b3ac|47|1 31,0,0,45,0,0,0,0,0,0,0,0,0,0,0,76,
scooby_state_50b3ac|15|1 31,0,0,44,0,0,0,0,0,0,0,0,0,0,0,75,
scooby_state_50ba86|55|3 75,0,0,0,0,0,0,0,0,0,0,0,0,0,0,75,
scooby_state_50b9ec|24|1 0,75,0,0,0,0,0,0,0,0,0,0,0,0,0,75,
scooby_state_50ba77|11|3 75,0,0,0,0,0,0,0,0,0,0,0,0,0,0,75,
scooby_state_50b9e2|12|0 75,0,0,0,0,0,0,0,0,0,0,0,0,0,0,75,
scooby_state_50b9ec|30|0 0,75,0,0,0,0,0,0,0,0,0,0,0,0,0,75,
scooby_state_50ba73|43|1 75,0,0,0,0,0,0,0,0,0,0,0,0,0,0,75,
scooby_state_50ba73|17|1 75,0,0,0,0,0,0,0,0,0,0,0,0,0,0,75,
scooby_state_50b9ec|58|0 0,75,0,0,0,0,0,0,0,0,0,0,0,0,0,75,
scooby_state_50ba86|36|2 74,0,0,0,0,0,0,0,0,0,0,1,0,0,0,75,
scooby_state_50ba69|31|-3 29,46,0,0,0,0,0,0,0,0,0,0,0,0,0,75,
scooby_state_50ba86|62|1 75,0,0,0,0,0,0,0,0,0,0,0,0,0,0,75,
scooby_state_50b9ec|23|1 0,75,0,0,0,0,0,0,0,0,0,0,0,0,0,75,
scooby_state_50ba73|33|1 75,0,0,0,0,0,0,0,0,0,0,0,0,0,0,75,
scooby_state_50ba86|46|2 75,0,0,0,0,0,0,0,0,0,0,0,0,0,0,75,
scooby_state_50b390|7|-3 75,0,0,0,0,0,0,0,0,0,0,0,0,0,0,75,
scooby_state_50b3ac|6|1 28,0,0,47,0,0,0,0,0,0,0,0,0,0,0,75,
scooby_state_50ba86|62|3 74,0,0,0,0,0,0,0,0,0,0,0,0,0,0,74,
scooby_state_50b9ec|31|9 1,73,0,0,0,0,0,0,0,0,0,0,0,0,0,74,
scooby_state_50b9ec|54|1 0,74,0,0,0,0,0,0,0,0,0,0,0,0,0,74,
scooby_state_50ba5e|19|1 60,14,0,0,0,0,0,0,0,0,0,0,0,0,0,74,
scooby_state_50ba77|49|3 74,0,0,0,0,0,0,0,0,0,0,0,0,0,0,74,
scooby_state_50b3ac|27|1 20,0,0,54,0,0,0,0,0,0,0,0,0,0,0,74,
scooby_state_50ba69|28|0 73,0,0,1,0,0,0,0,0,0,0,0,0,0,0,74,
scooby_state_50ba69|22|0 72,2,0,0,0,0,0,0,0,0,0,0,0,0,0,74,
scooby_state_50b3ac|19|1 36,0,0,38,0,0,0,0,0,0,0,0,0,0,0,74,
scooby_state_50ba86|47|-2 74,0,0,0,0,0,0,0,0,0,0,0,0,0,0,74,
scooby_state_50ba73|41|1 74,0,0,0,0,0,0,0,0,0,0,0,0,0,0,74,
scooby_state_50ba73|9|1 74,0,0,0,0,0,0,0,0,0,0,0,0,0,0,74,
scooby_state_50ba69|39|0 73,1,0,0,0,0,0,0,0,0,0,0,0,0,0,74,
scooby_state_50ba86|40|2 74,0,0,0,0,0,0,0,0,0,0,0,0,0,0,74,
scooby_state_50b9ec|29|0 0,74,0,0,0,0,0,0,0,0,0,0,0,0,0,74,
scooby_state_50ba73|15|1 74,0,0,0,0,0,0,0,0,0,0,0,0,0,0,74,
scooby_state_50b390|58|1 72,2,0,0,0,0,0,0,0,0,0,0,0,0,0,74,
scooby_state_50b9e2|43|-5 73,0,0,0,0,0,0,0,0,0,0,0,0,0,0,73,
scooby_state_50ba86|24|3 73,0,0,0,0,0,0,0,0,0,0,0,0,0,0,73,
scooby_state_50ba86|25|2 72,1,0,0,0,0,0,0,0,0,0,0,0,0,0,73,
scooby_state_50b390|9|1 67,6,0,0,0,0,0,0,0,0,0,0,0,0,0,73,
scooby_state_50b9ec|45|0 0,73,0,0,0,0,0,0,0,0,0,0,0,0,0,73,
scooby_state_50ba86|59|2 73,0,0,0,0,0,0,0,0,0,0,0,0,0,0,73,
scooby_state_50ba69|8|0 73,0,0,0,0,0,0,0,0,0,0,0,0,0,0,73,
scooby_state_50ba69|42|2 4,69,0,0,0,0,0,0,0,0,0,0,0,0,0,73,
scooby_state_50ba77|47|3 73,0,0,0,0,0,0,0,0,0,0,0,0,0,0,73,
scooby_state_50ba86|57|2 72,0,0,0,0,1,0,0,0,0,0,0,0,0,0,73,
scooby_state_50ba73|44|1 73,0,0,0,0,0,0,0,0,0,0,0,0,0,0,73,
scooby_state_50b9ec|15|4 0,73,0,0,0,0,0,0,0,0,0,0,0,0,0,73,
scooby_state_50ba5e|3|1 63,10,0,0,0,0,0,0,0,0,0,0,0,0,0,73,
scooby_state_50ba69|29|0 72,1,0,0,0,0,0,0,0,0,0,0,0,0,0,73,
scooby_state_50ba69|18|-3 19,54,0,0,0,0,0,0,0,0,0,0,0,0,0,73,
scooby_state_50b9e2|26|0 73,0,0,0,0,0,0,0,0,0,0,0,0,0,0,73,
scooby_state_50ba77|16|3 73,0,0,0,0,0,0,0,0,0,0,0,0,0,0,73,
scooby_state_50ba86|62|2 73,0,0,0,0,0,0,0,0,0,0,0,0,0,0,73,
scooby_state_50ba86|58|1 72,0,0,0,0,0,0,0,0,0,0,0,0,0,1,73,
scooby_state_50b9ec|26|0 0,73,0,0,0,0,0,0,0,0,0,0,0,0,0,73,
scooby_state_50b9ec|55|0 0,73,0,0,0,0,0,0,0,0,0,0,0,0,0,73,
scooby_state_50ba77|39|3 73,0,0,0,0,0,0,0,0,0,0,0,0,0,0,73,
scooby_state_50ba73|4|1 73,0,0,0,0,0,0,0,0,0,0,0,0,0,0,73,
scooby_state_50b3ac|54|1 33,0,0,40,0,0,0,0,0,0,0,0,0,0,0,73,
scooby_state_50ba86|46|3 73,0,0,0,0,0,0,0,0,0,0,0,0,0,0,73,
scooby_state_50ba86|55|2 72,0,0,0,0,0,0,0,0,0,0,0,0,0,0,72,
scooby_state_50b9ec|20|9 0,72,0,0,0,0,0,0,0,0,0,0,0,0,0,72,
scooby_state_50b9e2|8|0 72,0,0,0,0,0,0,0,0,0,0,0,0,0,0,72,
scooby_state_50ba73|21|1 71,0,0,0,0,0,0,0,0,0,0,0,1,0,0,72,
scooby_state_50b3ac|49|1 29,0,0,43,0,0,0,0,0,0,0,0,0,0,0,72,
scooby_state_50ba69|8|-3 29,43,0,0,0,0,0,0,0,0,0,0,0,0,0,72,
scooby_state_50ba86|30|3 72,0,0,0,0,0,0,0,0,0,0,0,0,0,0,72,
scooby_state_50b3ac|57|1 31,0,0,41,0,0,0,0,0,0,0,0,0,0,0,72,
scooby_state_50ba86|34|0 72,0,0,0,0,0,0,0,0,0,0,0,0,0,0,72,
scooby_state_50ba5e|34|1 59,13,0,0,0,0,0,0,0,0,0,0,0,0,0,72,
scooby_state_50b9ec|18|1 0,72,0,0,0,0,0,0,0,0,0,0,0,0,0,72,
scooby_state_50b390|0|0 72,0,0,0,0,0,0,0,0,0,0,0,0,0,0,72,
scooby_state_50ba5e|22|1 59,13,0,0,0,0,0,0,0,0,0,0,0,0,0,72,
scooby_state_50ba77|53|4 72,0,0,0,0,0,0,0,0,0,0,0,0,0,0,72,
scooby_state_50b9ec|43|9 0,72,0,0,0,0,0,0,0,0,0,0,0,0,0,72,
scooby_state_50ba69|17|2 4,67,0,0,0,0,0,0,0,0,0,0,0,0,0,71,
scooby_state_50ba77|46|3 71,0,0,0,0,0,0,0,0,0,0,0,0,0,0,71,
scooby_state_50ba77|54|3 71,0,0,0,0,0,0,0,0,0,0,0,0,0,0,71,
scooby_state_50ba86|63|3 71,0,0,0,0,0,0,0,0,0,0,0,0,0,0,71,
scooby_state_50b9ec|41|9 0,71,0,0,0,0,0,0,0,0,0,0,0,0,0,71,
scooby_state_50b390|58|-5 71,0,0,0,0,0,0,0,0,0,0,0,0,0,0,71,
scooby_state_50b9ec|56|9 0,71,0,0,0,0,0,0,0,0,0,0,0,0,0,71,
scooby_state_50ba73|29|1 71,0,0,0,0,0,0,0,0,0,0,0,0,0,0,71,
scooby_state_50ba73|2|1 71,0,0,0,0,0,0,0,0,0,0,0,0,0,0,71,
scooby_state_50b9ec|54|0 0,71,0,0,0,0,0,0,0,0,0,0,0,0,0,71,
scooby_state_50b3ac|55|1 16,0,0,55,0,0,0,0,0,0,0,0,0,0,0,71,
scooby_state_50b9ec|38|0 0,71,0,0,0,0,0,0,0,0,0,0,0,0,0,71,
scooby_state_50b390|60|1 64,7,0,0,0,0,0,0,0,0,0,0,0,0,0,71,
scooby_state_50ba86|26|3 71,0,0,0,0,0,0,0,0,0,0,0,0,0,0,71,
scooby_state_50ba69|63|0 70,1,0,0,0,0,0,0,0,0,0,0,0,0,0,71,
scooby_state_50ba73|24|1 71,0,0,0,0,0,0,0,0,0,0,0,0,0,0,71,
scooby_state_50b9ec|12|4 0,71,0,0,0,0,0,0,0,0,0,0,0,0,0,71,
scooby_state_50b9ec|52|1 0,71,0,0,0,0,0,0,0,0,0,0,0,0,0,71,
scooby_state_50ba69|46|-3 25,45,0,0,0,0,0,0,0,0,0,0,0,0,0,70,
scooby_state_50b9ec|45|1 0,70,0,0,0,0,0,0,0,0,0,0,0,0,0,70,
scooby_state_50ba86|37|2 70,0,0,0,0,0,0,0,0,0,0,0,0,0,0,70,
scooby_state_50ba77|15|3 70,0,0,0,0,0,0,0,0,0,0,0,0,0,0,70,
scooby_state_50ba5e|35|1 62,7,0,0,0,1,0,0,0,0,0,0,0,0,0,70,
scooby_state_50ba86|63|0 70,0,0,0,0,0,0,0,0,0,0,0,0,0,0,70,
scooby_state_50ba73|35|1 70,0,0,0,0,0,0,0,0,0,0,0,0,0,0,70,
scooby_state_50ba86|14|2 70,0,0,0,0,0,0,0,0,0,0,0,0,0,0,70,
scooby_state_50ba86|31|2 70,0,0,0,0,0,0,0,0,0,0,0,0,0,0,70,
scooby_state_50b9e2|62|0 70,0,0,0,0,0,0,0,0,0,0,0,0,0,0,70,
scooby_state_50ba86|56|2 70,0,0,0,0,0,0,0,0,0,0,0,0,0,0,70,
scooby_state_50ba5e|40|1 67,3,0,0,0,0,0,0,0,0,0,0,0,0,0,70,
scooby_state_50ba86|19|3 69,0,0,0,0,0,0,0,0,1,0,0,0,0,0,70,
scooby_state_50ba86|26|0 70,0,0,0,0,0,0,0,0,0,0,0,0,0,0,70,
scooby_state_50b390|47|-3 69,0,0,1,0,0,0,0,0,0,0,0,0,0,0,70,
scooby_state_50b3ac|9|1 32,0,0,38,0,0,0,0,0,0,0,0,0,0,0,70,
scooby_state_50ba86|21|2 70,0,0,0,0,0,0,0,0,0,0,0,0,0,0,70,
scooby_state_50ba69|40|2 3,67,0,0,0,0,0,0,0,0,0,0,0,0,0,70,
scooby_state_50ba5e|20|1 59,11,0,0,0,0,0,0,0,0,0,0,0,0,0,70,
scooby_state_50ba94|0|0 16,53,0,0,0,1,0,0,0,0,0,0,0,0,0,70,
scooby_state_50b9e2|21|0 70,0,0,0,0,0,0,0,0,0,0,0,0,0,0,70,
scooby_state_50ba86|16|2 68,1,0,0,0,0,0,0,0,0,0,0,0,0,0,69,
scooby_state_50ba69|2|-3 28,40,0,0,0,0,1,0,0,0,0,0,0,0,0,69,
scooby_state_50ba73|51|1 69,0,0,0,0,0,0,0,0,0,0,0,0,0,0,69,
scooby_state_50b3ac|30|1 21,0,0,48,0,0,0,0,0,0,0,0,0,0,0,69,
scooby_state_50b390|63|2 69,0,0,0,0,0,0,0,0,0,0,0,0,0,0,69,
scooby_state_50ba69|60|2 0,69,0,0,0,0,0,0,0,0,0,0,0,0,0,69,
scooby_state_50ba69|3|-3 23,46,0,0,0,0,0,0,0,0,0,0,0,0,0,69,
scooby_state_50b3ac|46|1 24,0,0,45,0,0,0,0,0,0,0,0,0,0,0,69,
scooby_state_50ba77|37|3 69,0,0,0,0,0,0,0,0,0,0,0,0,0,0,69,
scooby_state_50ba86|42|3 69,0,0,0,0,0,0,0,0,0,0,0,0,0,0,69,
scooby_state_50ba69|51|-3 18,51,0,0,0,0,0,0,0,0,0,0,0,0,0,69,
scooby_state_50ba86|32|0 68,0,0,0,0,0,0,0,0,0,0,0,0,0,0,68,
scooby_state_50ba69|54|0 67,1,0,0,0,0,0,0,0,0,0,0,0,0,0,68,
scooby_state_50ba86|45|2 68,0,0,0,0,0,0,0,0,0,0,0,0,0,0,68,
scooby_state_50ba5e|29|1 55,13,0,0,0,0,0,0,0,0,0,0,0,0,0,68,
scooby_state_50b9ec|54|9 0,68,0,0,0,0,0,0,0,0,0,0,0,0,0,68,
scooby_state_50b9ec|14|0 0,68,0,0,0,0,0,0,0,0,0,0,0,0,0,68,
scooby_state_50b9ec|10|4 1,67,0,0,0,0,0,0,0,0,0,0,0,0,0,68,
scooby_state_50ba69|54|2 4,64,0,0,0,0,0,0,0,0,0,0,0,0,0,68,
scooby_state_50ba86|44|3 68,0,0,0,0,0,0,0,0,0,0,0,0,0,0,68,
scooby_state_50ba86|29|3 68,0,0,0,0,0,0,0,0,0,0,0,0,0,0,68,
scooby_state_50b9e2|17|0 67,0,0,0,0,0,0,0,1,0,0,0,0,0,0,68,
scooby_state_50ba69|11|0 65,3,0,0,0,0,0,0,0,0,0,0,0,0,0,68,
scooby_state_50b9e2|57|-5 68,0,0,0,0,0,0,0,0,0,0,0,0,0,0,68,
scooby_state_50b390|62|2 66,1,0,1,0,0,0,0,0,0,0,0,0,0,0,68,
scooby_state_50ba69|62|0 64,4,0,0,0,0,0,0,0,0,0,0,0,0,0,68,
scooby_state_50ba77|50|3 68,0,0,0,0,0,0,0,0,0,0,0,0,0,0,68,
scooby_state_50ba86|35|3 68,0,0,0,0,0,0,0,0,0,0,0,0,0,0,68,
scooby_state_50b9ec|30|9 0,68,0,0,0,0,0,0,0,0,0,0,0,0,0,68,
scooby_state_50ba73|55|1 67,0,0,0,0,0,0,0,0,0,0,0,0,0,0,67,
scooby_state_50ba86|28|3 67,0,0,0,0,0,0,0,0,0,0,0,0,0,0,67,
scooby_state_50b9e2|4|-3 67,0,0,0,0,0,0,0,0,0,0,0,0,0,0,67,
scooby_state_50b3ac|25|1 27,0,0,40,0,0,0,0,0,0,0,0,0,0,0,67,
scooby_state_50ba69|36|-3 25,42,0,0,0,0,0,0,0,0,0,0,0,0,0,67,
scooby_state_50b9ec|34|1 0,65,0,0,1,0,0,0,0,0,0,0,1,0,0,67,
scooby_state_50ba5e|45|1 53,14,0,0,0,0,0,0,0,0,0,0,0,0,0,67,
scooby_state_50ba77|53|3 67,0,0,0,0,0,0,0,0,0,0,0,0,0,0,67,
scooby_state_50ba77|23|3 67,0,0,0,0,0,0,0,0,0,0,0,0,0,0,67,
scooby_state_50ba69|61|-2 27,40,0,0,0,0,0,0,0,0,0,0,0,0,0,67,
scooby_state_50ba5e|53|1 59,8,0,0,0,0,0,0,0,0,0,0,0,0,0,67,
scooby_state_50b9ec|63|1 0,67,0,0,0,0,0,0,0,0,0,0,0,0,0,67,
scooby_state_50ba5e|43|1 60,7,0,0,0,0,0,0,0,0,0,0,0,0,0,67,
scooby_state_50b390|1|0 66,1,0,0,0,0,0,0,0,0,0,0,0,0,0,67,
scooby_state_50b9ec|43|2 9,58,0,0,0,0,0,0,0,0,0,0,0,0,0,67,
scooby_state_50ba73|36|1 67,0,0,0,0,0,0,0,0,0,0,0,0,0,0,67,
scooby_state_50b9ec|44|0 0,67,0,0,0,0,0,0,0,0,0,0,0,0,0,67,
scooby_state_50b390|60|-2 67,0,0,0,0,0,0,0,0,0,0,0,0,0,0,67,
scooby_state_50b390|8|-3 67,0,0,0,0,0,0,0,0,0,0,0,0,0,0,67,
scooby_state_50b9ec|18|4 2,65,0,0,0,0,0,0,0,0,0,0,0,0,0,67,
scooby_state_50b9ec|23|0 0,67,0,0,0,0,0,0,0,0,0,0,0,0,0,67,
scooby_state_50ba77|41|3 67,0,0,0,0,0,0,0,0,0,0,0,0,0,0,67,
scooby_state_50ba5e|18|1 56,10,0,0,0,0,0,0,0,0,0,0,0,0,0,66,
scooby_state_50ba86|47|4 66,0,0,0,0,0,0,0,0,0,0,0,0,0,0,66,
scooby_state_50b9ec|16|0 0,66,0,0,0,0,0,0,0,0,0,0,0,0,0,66,
scooby_state_50ba86|35|0 66,0,0,0,0,0,0,0,0,0,0,0,0,0,0,66,
scooby_state_50b9ec|57|0 0,66,0,0,0,0,0,0,0,0,0,0,0,0,0,66,
scooby_state_50ba77|17|3 66,0,0,0,0,0,0,0,0,0,0,0,0,0,0,66,
scooby_state_50b390|2|-2 66,0,0,0,0,0,0,0,0,0,0,0,0,0,0,66,
scooby_state_50b9ec|29|7 0,66,0,0,0,0,0,0,0,0,0,0,0,0,0,66,
scooby_state_50ba86|60|3 66,0,0,0,0,0,0,0,0,0,0,0,0,0,0,66,
scooby_state_50ba5e|12|1 55,11,0,0,0,0,0,0,0,0,0,0,0,0,0,66,
scooby_state_50b9ec|35|2 5,61,0,0,0,0,0,0,0,0,0,0,0,0,0,66,
scooby_state_50b9ec|39|4 0,66,0,0,0,0,0,0,0,0,0,0,0,0,0,66,
scooby_state_50ba86|43|2 66,0,0,0,0,0,0,0,0,0,0,0,0,0,0,66,
scooby_state_50b3ac|58|1 27,0,0,39,0,0,0,0,0,0,0,0,0,0,0,66,
scooby_state_50b9ec|10|9 0,66,0,0,0,0,0,0,0,0,0,0,0,0,0,66,
scooby_state_50b9e2|27|0 65,0,0,0,0,0,0,0,0,0,1,0,0,0,0,66,
scooby_state_50ba5e|47|1 51,15,0,0,0,0,0,0,0,0,0,0,0,0,0,66,
scooby_state_50ba77|63|3 66,0,0,0,0,0,0,0,0,0,0,0,0,0,0,66,
scooby_state_50ba86|56|4 66,0,0,0,0,0,0,0,0,0,0,0,0,0,0,66,
scooby_state_50b9e2|25|0 66,0,0,0,0,0,0,0,0,0,0,0,0,0,0,66,
scooby_state_50ba73|0|0 65,0,1,0,0,0,0,0,0,0,0,0,0,0,0,66,
scooby_state_50ba5e|48|1 52,13,0,0,0,0,0,1,0,0,0,0,0,0,0,66,
[...]
scooby_state_50b9e2|22|-14 1,0,0,0,0,0,0,0,0,0,0,0,0,0,0,1,
scooby_state_50b9e2|56|23 1,0,0,0,0,0,0,0,0,0,0,0,0,0,0,1,
scooby_state_65e510|20|0 1,0,0,0,0,0,0,0,0,0,0,0,0,0,0,1,
scooby_state_49efc0|63|0 1,0,0,0,0,0,0,0,0,0,0,0,0,0,0,1,
scooby_state_50ba94|49|11 0,1,0,0,0,0,0,0,0,0,0,0,0,0,0,1,
scooby_state_50ba5e|17|-1 0,1,0,0,0,0,0,0,0,0,0,0,0,0,0,1,
scooby_state_5745b1|56|1 1,0,0,0,0,0,0,0,0,0,0,0,0,0,0,1,
scooby_state_50ba69|44|24 0,1,0,0,0,0,0,0,0,0,0,0,0,0,0,1,
scooby_state_50b390|1|-24 1,0,0,0,0,0,0,0,0,0,0,0,0,0,0,1,
scooby_state_50ba94|51|36 0,1,0,0,0,0,0,0,0,0,0,0,0,0,0,1,
scooby_state_50b390|20|15 1,0,0,0,0,0,0,0,0,0,0,0,0,0,0,1,
scooby_state_574521|3|1 1,0,0,0,0,0,0,0,0,0,0,0,0,0,0,1,
scooby_state_574521|61|1 1,0,0,0,0,0,0,0,0,0,0,0,0,0,0,1,
scooby_state_50ba94|41|15 0,1,0,0,0,0,0,0,0,0,0,0,0,0,0,1,
scooby_state_50b9ec|37|28 0,1,0,0,0,0,0,0,0,0,0,0,0,0,0,1,
scooby_state_50ba90|26|-3 1,0,0,0,0,0,0,0,0,0,0,0,0,0,0,1,
scooby_state_50b3ac|42|-8 1,0,0,0,0,0,0,0,0,0,0,0,0,0,0,1,
scooby_state_48b98f|43|0 1,0,0,0,0,0,0,0,0,0,0,0,0,0,0,1,
scooby_state_50b390|33|18 1,0,0,0,0,0,0,0,0,0,0,0,0,0,0,1,
scooby_state_50b9ec|3|-14 0,1,0,0,0,0,0,0,0,0,0,0,0,0,0,1,
scooby_state_50ba5e|32|2 1,0,0,0,0,0,0,0,0,0,0,0,0,0,0,1,
scooby_state_4db3ba|51|32 1,0,0,0,0,0,0,0,0,0,0,0,0,0,0,1,
scooby_state_50b9ec|15|-30 0,1,0,0,0,0,0,0,0,0,0,0,0,0,0,1,
scooby_state_50ba5e|58|2 1,0,0,0,0,0,0,0,0,0,0,0,0,0,0,1,
scooby_state_50ba69|19|-22 1,0,0,0,0,0,0,0,0,0,0,0,0,0,0,1,
scooby_state_50ba94|14|-8 0,1,0,0,0,0,0,0,0,0,0,0,0,0,0,1,
scooby_state_50ba86|31|-28 1,0,0,0,0,0,0,0,0,0,0,0,0,0,0,1,
scooby_state_50ba94|42|9 0,1,0,0,0,0,0,0,0,0,0,0,0,0,0,1,
scooby_state_4818c0|35|1 0,1,0,0,0,0,0,0,0,0,0,0,0,0,0,1,
scooby_state_50ba5e|29|-20 1,0,0,0,0,0,0,0,0,0,0,0,0,0,0,1,
scooby_state_50ba77|51|13 1,0,0,0,0,0,0,0,0,0,0,0,0,0,0,1,
scooby_state_574228|33|0 1,0,0,0,0,0,0,0,0,0,0,0,0,0,0,1,
scooby_state_50ba5e|39|11 1,0,0,0,0,0,0,0,0,0,0,0,0,0,0,1,
scooby_state_50b9e2|25|-18 1,0,0,0,0,0,0,0,0,0,0,0,0,0,0,1,
scooby_state_50b9e2|35|-23 1,0,0,0,0,0,0,0,0,0,0,0,0,0,0,1,
scooby_state_50ba5e|30|-24 1,0,0,0,0,0,0,0,0,0,0,0,0,0,0,1,
scooby_state_50ba94|31|25 0,1,0,0,0,0,0,0,0,0,0,0,0,0,0,1,
scooby_state_50ba5e|49|13 1,0,0,0,0,0,0,0,0,0,0,0,0,0,0,1,
scooby_state_50b9e2|36|-9 1,0,0,0,0,0,0,0,0,0,0,0,0,0,0,1,
scooby_state_50b9ec|44|29 0,1,0,0,0,0,0,0,0,0,0,0,0,0,0,1,
scooby_state_50ba77|39|14 1,0,0,0,0,0,0,0,0,0,0,0,0,0,0,1,
scooby_state_50ba69|8|-42 0,1,0,0,0,0,0,0,0,0,0,0,0,0,0,1,
scooby_state_50ba69|30|18 1,0,0,0,0,0,0,0,0,0,0,0,0,0,0,1,
scooby_state_47b0de|47|6 1,0,0,0,0,0,0,0,0,0,0,0,0,0,0,1,
scooby_state_50b3ac|6|-5 0,1,0,0,0,0,0,0,0,0,0,0,0,0,0,1,
scooby_state_5389ce|21|0 1,0,0,0,0,0,0,0,0,0,0,0,0,0,0,1,
scooby_state_50b390|27|19 0,1,0,0,0,0,0,0,0,0,0,0,0,0,0,1,
scooby_state_50ba77|55|13 1,0,0,0,0,0,0,0,0,0,0,0,0,0,0,1,
scooby_state_50b3ac|43|-10 0,0,0,1,0,0,0,0,0,0,0,0,0,0,0,1,
scooby_state_50ba77|53|13 1,0,0,0,0,0,0,0,0,0,0,0,0,0,0,1,
scooby_state_50ba69|17|-37 0,1,0,0,0,0,0,0,0,0,0,0,0,0,0,1,
scooby_state_50ba90|28|5 1,0,0,0,0,0,0,0,0,0,0,0,0,0,0,1,
scooby_state_50b390|24|7 1,0,0,0,0,0,0,0,0,0,0,0,0,0,0,1,
scooby_state_50ba86|51|44 1,0,0,0,0,0,0,0,0,0,0,0,0,0,0,1,
scooby_state_50b9e2|25|-22 1,0,0,0,0,0,0,0,0,0,0,0,0,0,0,1,
scooby_state_50ba77|28|19 1,0,0,0,0,0,0,0,0,0,0,0,0,0,0,1,
scooby_state_48fff5|20|20 1,0,0,0,0,0,0,0,0,0,0,0,0,0,0,1,
scooby_state_50ba77|19|8 1,0,0,0,0,0,0,0,0,0,0,0,0,0,0,1,
scooby_state_50ba86|53|-5 1,0,0,0,0,0,0,0,0,0,0,0,0,0,0,1,
scooby_state_47b0de|47|-5 1,0,0,0,0,0,0,0,0,0,0,0,0,0,0,1,
scooby_state_50b9e2|62|28 1,0,0,0,0,0,0,0,0,0,0,0,0,0,0,1,
scooby_state_5389c3|49|0 1,0,0,0,0,0,0,0,0,0,0,0,0,0,0,1,
scooby_state_50ba77|42|-20 1,0,0,0,0,0,0,0,0,0,0,0,0,0,0,1,
scooby_state_50b9ec|39|-16 0,1,0,0,0,0,0,0,0,0,0,0,0,0,0,1,
scooby_state_50ba5e|29|-6 1,0,0,0,0,0,0,0,0,0,0,0,0,0,0,1,
scooby_state_50ba94|50|-10 0,1,0,0,0,0,0,0,0,0,0,0,0,0,0,1,
scooby_state_57458b|49|0 1,0,0,0,0,0,0,0,0,0,0,0,0,0,0,1,
scooby_state_50ba77|39|-1 1,0,0,0,0,0,0,0,0,0,0,0,0,0,0,1,
scooby_state_50ba90|16|-4 1,0,0,0,0,0,0,0,0,0,0,0,0,0,0,1,
scooby_state_50b9ec|55|11 0,1,0,0,0,0,0,0,0,0,0,0,0,0,0,1,
scooby_state_50ba73|30|2 1,0,0,0,0,0,0,0,0,0,0,0,0,0,0,1,
scooby_state_717554|22|1 1,0,0,0,0,0,0,0,0,0,0,0,0,0,0,1,
scooby_state_50ba5e|47|-8 1,0,0,0,0,0,0,0,0,0,0,0,0,0,0,1,
scooby_state_50b9e2|21|-28 1,0,0,0,0,0,0,0,0,0,0,0,0,0,0,1,
scooby_state_50b390|63|31 1,0,0,0,0,0,0,0,0,0,0,0,0,0,0,1,
scooby_state_50b9e2|52|36 1,0,0,0,0,0,0,0,0,0,0,0,0,0,0,1,
scooby_state_50ba77|44|34 1,0,0,0,0,0,0,0,0,0,0,0,0,0,0,1,
scooby_state_50b9ec|29|-19 0,1,0,0,0,0,0,0,0,0,0,0,0,0,0,1,
scooby_state_7169ee|29|0 1,0,0,0,0,0,0,0,0,0,0,0,0,0,0,1,
scooby_state_50ba94|9|8 0,1,0,0,0,0,0,0,0,0,0,0,0,0,0,1,
scooby_state_50b9e2|57|36 1,0,0,0,0,0,0,0,0,0,0,0,0,0,0,1,
scooby_state_50b9e2|46|17 1,0,0,0,0,0,0,0,0,0,0,0,0,0,0,1,
scooby_state_57455d|7|4 1,0,0,0,0,0,0,0,0,0,0,0,0,0,0,1,
scooby_state_50b9ec|28|-20 0,1,0,0,0,0,0,0,0,0,0,0,0,0,0,1,
scooby_state_50ba73|22|2 1,0,0,0,0,0,0,0,0,0,0,0,0,0,0,1,
scooby_state_5745bd|5|0 1,0,0,0,0,0,0,0,0,0,0,0,0,0,0,1,
scooby_state_50ba94|32|-28 0,1,0,0,0,0,0,0,0,0,0,0,0,0,0,1,
scooby_state_50b390|18|-44 1,0,0,0,0,0,0,0,0,0,0,0,0,0,0,1,
scooby_state_536881|34|1 1,0,0,0,0,0,0,0,0,0,0,0,0,0,0,1,
scooby_state_50b390|17|-44 0,1,0,0,0,0,0,0,0,0,0,0,0,0,0,1,
scooby_state_50b9ec|31|15 0,1,0,0,0,0,0,0,0,0,0,0,0,0,0,1,
scooby_state_50ba94|33|14 0,1,0,0,0,0,0,0,0,0,0,0,0,0,0,1,
scooby_state_49ef7a|61|-1 1,0,0,0,0,0,0,0,0,0,0,0,0,0,0,1,
scooby_state_50b9e2|40|26 1,0,0,0,0,0,0,0,0,0,0,0,0,0,0,1,
scooby_state_50b390|15|-33 1,0,0,0,0,0,0,0,0,0,0,0,0,0,0,1,
scooby_state_50ba94|25|7 0,1,0,0,0,0,0,0,0,0,0,0,0,0,0,1,
scooby_state_50ba73|6|-4 1,0,0,0,0,0,0,0,0,0,0,0,0,0,0,1,
scooby_state_50ba86|0|-59 1,0,0,0,0,0,0,0,0,0,0,0,0,0,0,1,
scooby_state_50b9e2|4|-40 1,0,0,0,0,0,0,0,0,0,0,0,0,0,0,1,
scooby_state_50b390|6|-56 1,0,0,0,0,0,0,0,0,0,0,0,0,0,0,1,
scooby_state_50ba77|36|27 1,0,0,0,0,0,0,0,0,0,0,0,0,0,0,1,
scooby_state_50bfc1|63|1 1,0,0,0,0,0,0,0,0,0,0,0,0,0,0,1,
scooby_state_5745ea|23|-1 1,0,0,0,0,0,0,0,0,0,0,0,0,0,0,1,
scooby_state_50ba5e|28|14 1,0,0,0,0,0,0,0,0,0,0,0,0,0,0,1,
scooby_state_574552|12|1 0,1,0,0,0,0,0,0,0,0,0,0,0,0,0,1,
scooby_state_50ba86|30|-28 1,0,0,0,0,0,0,0,0,0,0,0,0,0,0,1,
scooby_state_53942b|12|12 0,1,0,0,0,0,0,0,0,0,0,0,0,0,0,1,
scooby_state_50ba86|48|28 1,0,0,0,0,0,0,0,0,0,0,0,0,0,0,1,
scooby_state_50ba77|37|-3 1,0,0,0,0,0,0,0,0,0,0,0,0,0,0,1,
scooby_state_50b9e2|1|-60 1,0,0,0,0,0,0,0,0,0,0,0,0,0,0,1,
scooby_state_50ba94|60|27 0,1,0,0,0,0,0,0,0,0,0,0,0,0,0,1,
scooby_state_50ba86|20|-18 1,0,0,0,0,0,0,0,0,0,0,0,0,0,0,1,
scooby_state_50ba5e|14|-35 1,0,0,0,0,0,0,0,0,0,0,0,0,0,0,1,
scooby_state_56e547|46|0 0,0,1,0,0,0,0,0,0,0,0,0,0,0,0,1,
scooby_state_50ba69|24|-32 0,1,0,0,0,0,0,0,0,0,0,0,0,0,0,1,
scooby_state_7173c0|15|1 1,0,0,0,0,0,0,0,0,0,0,0,0,0,0,1,
scooby_state_50ba69|1|-18 1,0,0,0,0,0,0,0,0,0,0,0,0,0,0,1,
scooby_state_50b9e2|1|-24 1,0,0,0,0,0,0,0,0,0,0,0,0,0,0,1,
scooby_state_50b9ec|39|-12 0,1,0,0,0,0,0,0,0,0,0,0,0,0,0,1,
scooby_state_50b9ec|21|-22 0,1,0,0,0,0,0,0,0,0,0,0,0,0,0,1,
scooby_state_50ba5e|47|10 1,0,0,0,0,0,0,0,0,0,0,0,0,0,0,1,
scooby_state_50b390|0|-53 1,0,0,0,0,0,0,0,0,0,0,0,0,0,0,1,
scooby_state_50b390|34|-26 1,0,0,0,0,0,0,0,0,0,0,0,0,0,0,1,
scooby_state_50b9e2|17|-33 1,0,0,0,0,0,0,0,0,0,0,0,0,0,0,1,
scooby_state_49ef80|7|0 1,0,0,0,0,0,0,0,0,0,0,0,0,0,0,1,
scooby_state_53953e|56|2 0,0,0,1,0,0,0,0,0,0,0,0,0,0,0,1,
scooby_state_56e547|48|0 0,0,1,0,0,0,0,0,0,0,0,0,0,0,0,1,
scooby_state_71cfc9|63|1 1,0,0,0,0,0,0,0,0,0,0,0,0,0,0,1,
scooby_state_716d43|53|1 0,1,0,0,0,0,0,0,0,0,0,0,0,0,0,1,
scooby_state_50b9ec|52|13 1,0,0,0,0,0,0,0,0,0,0,0,0,0,0,1,
scooby_state_539177|36|24 1,0,0,0,0,0,0,0,0,0,0,0,0,0,0,1,
scooby_state_50b9e2|10|-15 1,0,0,0,0,0,0,0,0,0,0,0,0,0,0,1,
scooby_state_50ba86|21|-12 1,0,0,0,0,0,0,0,0,0,0,0,0,0,0,1,
scooby_state_50b390|61|12 1,0,0,0,0,0,0,0,0,0,0,0,0,0,0,1,
scooby_state_652077|15|3 1,0,0,0,0,0,0,0,0,0,0,0,0,0,0,1,
scooby_state_48f4fe|57|0 1,0,0,0,0,0,0,0,0,0,0,0,0,0,0,1,
scooby_state_4ba340|13|-11 1,0,0,0,0,0,0,0,0,0,0,0,0,0,0,1,
scooby_state_50ba77|47|18 1,0,0,0,0,0,0,0,0,0,0,0,0,0,0,1,
scooby_state_50ba77|62|16 1,0,0,0,0,0,0,0,0,0,0,0,0,0,0,1,
scooby_state_50ba94|44|42 0,1,0,0,0,0,0,0,0,0,0,0,0,0,0,1,
scooby_state_4b294b|1|0 0,1,0,0,0,0,0,0,0,0,0,0,0,0,0,1,
scooby_state_50ba77|61|28 1,0,0,0,0,0,0,0,0,0,0,0,0,0,0,1,
scooby_state_50b9e2|19|-18 1,0,0,0,0,0,0,0,0,0,0,0,0,0,0,1,
scooby_state_50b390|12|-29 1,0,0,0,0,0,0,0,0,0,0,0,0,0,0,1,
scooby_state_50ba5e|46|44 1,0,0,0,0,0,0,0,0,0,0,0,0,0,0,1,
scooby_state_50b3ac|10|-15 1,0,0,0,0,0,0,0,0,0,0,0,0,0,0,1,
scooby_state_50ba86|11|-26 1,0,0,0,0,0,0,0,0,0,0,0,0,0,0,1,
scooby_state_50b9ec|17|-34 0,1,0,0,0,0,0,0,0,0,0,0,0,0,0,1,
scooby_state_50b390|59|40 1,0,0,0,0,0,0,0,0,0,0,0,0,0,0,1,
scooby_state_50ba69|39|16 1,0,0,0,0,0,0,0,0,0,0,0,0,0,0,1,
scooby_state_50b3ac|21|9 1,0,0,0,0,0,0,0,0,0,0,0,0,0,0,1,
scooby_state_50ba69|61|32 0,1,0,0,0,0,0,0,0,0,0,0,0,0,0,1,
scooby_state_50ba69|51|50 0,1,0,0,0,0,0,0,0,0,0,0,0,0,0,1,
scooby_state_50ba5e|55|9 1,0,0,0,0,0,0,0,0,0,0,0,0,0,0,1,
scooby_state_50b390|51|24 1,0,0,0,0,0,0,0,0,0,0,0,0,0,0,1,
scooby_state_50b9e2|15|-44 1,0,0,0,0,0,0,0,0,0,0,0,0,0,0,1,
scooby_state_50b9ec|18|13 0,1,0,0,0,0,0,0,0,0,0,0,0,0,0,1,
scooby_state_71aad8|8|-9 0,1,0,0,0,0,0,0,0,0,0,0,0,0,0,1,
scooby_state_50b390|50|19 0,1,0,0,0,0,0,0,0,0,0,0,0,0,0,1,
scooby_state_50ba94|42|-10 0,1,0,0,0,0,0,0,0,0,0,0,0,0,0,1,
scooby_state_50ba77|39|22 1,0,0,0,0,0,0,0,0,0,0,0,0,0,0,1,
scooby_state_574562|53|-1 1,0,0,0,0,0,0,0,0,0,0,0,0,0,0,1,
scooby_state_50ba5e|32|31 0,1,0,0,0,0,0,0,0,0,0,0,0,0,0,1,
scooby_state_50ba94|61|26 0,1,0,0,0,0,0,0,0,0,0,0,0,0,0,1,
scooby_state_57422c|19|-1 1,0,0,0,0,0,0,0,0,0,0,0,0,0,0,1,
scooby_state_50b9e2|13|-35 1,0,0,0,0,0,0,0,0,0,0,0,0,0,0,1,
scooby_state_50ba86|27|-31 1,0,0,0,0,0,0,0,0,0,0,0,0,0,0,1,
scooby_state_50ba86|44|17 1,0,0,0,0,0,0,0,0,0,0,0,0,0,0,1,
scooby_state_50ba94|31|26 0,1,0,0,0,0,0,0,0,0,0,0,0,0,0,1,
scooby_state_50b9ec|45|-9 0,1,0,0,0,0,0,0,0,0,0,0,0,0,0,1,
scooby_state_50b390|20|7 1,0,0,0,0,0,0,0,0,0,0,0,0,0,0,1,
scooby_state_50ba94|47|41 0,1,0,0,0,0,0,0,0,0,0,0,0,0,0,1,
scooby_state_574518|30|8 1,0,0,0,0,0,0,0,0,0,0,0,0,0,0,1,
scooby_state_50ba69|0|-39 1,0,0,0,0,0,0,0,0,0,0,0,0,0,0,1,
scooby_state_50ba5e|51|21 1,0,0,0,0,0,0,0,0,0,0,0,0,0,0,1,
scooby_state_50ba77|52|16 1,0,0,0,0,0,0,0,0,0,0,0,0,0,0,1,
scooby_state_5745b4|35|0 1,0,0,0,0,0,0,0,0,0,0,0,0,0,0,1,
scooby_state_50b9ec|4|-22 0,1,0,0,0,0,0,0,0,0,0,0,0,0,0,1,
scooby_state_50ba94|54|7 0,1,0,0,0,0,0,0,0,0,0,0,0,0,0,1,
scooby_state_50ba5e|19|-8 1,0,0,0,0,0,0,0,0,0,0,0,0,0,0,1,
scooby_state_50ba5e|29|8 1,0,0,0,0,0,0,0,0,0,0,0,0,0,0,1,
scooby_state_4c3c86|51|0 1,0,0,0,0,0,0,0,0,0,0,0,0,0,0,1,
scooby_state_50ba69|40|15 0,1,0,0,0,0,0,0,0,0,0,0,0,0,0,1,
scooby_state_50ba94|48|30 0,1,0,0,0,0,0,0,0,0,0,0,0,0,0,1,
scooby_state_50ba86|3|-20 1,0,0,0,0,0,0,0,0,0,0,0,0,0,0,1,
scooby_state_47a049|58|0 1,0,0,0,0,0,0,0,0,0,0,0,0,0,0,1,
scooby_state_50b9ec|48|26 0,1,0,0,0,0,0,0,0,0,0,0,0,0,0,1,
scooby_state_50ba86|28|-3 1,0,0,0,0,0,0,0,0,0,0,0,0,0,0,1,
scooby_state_50b9ec|41|37 0,1,0,0,0,0,0,0,0,0,0,0,0,0,0,1,
scooby_state_50b9e2|7|-31 1,0,0,0,0,0,0,0,0,0,0,0,0,0,0,1,
scooby_state_50b9ec|50|27 0,1,0,0,0,0,0,0,0,0,0,0,0,0,0,1,
scooby_state_48cd13|35|33 1,0,0,0,0,0,0,0,0,0,0,0,0,0,0,1,
scooby_state_50ba77|16|-2 1,0,0,0,0,0,0,0,0,0,0,0,0,0,0,1,
scooby_state_50ba5e|35|34 1,0,0,0,0,0,0,0,0,0,0,0,0,0,0,1,
scooby_state_50ba5e|35|-26 1,0,0,0,0,0,0,0,0,0,0,0,0,0,0,1,
scooby_state_50b9ec|58|16 0,1,0,0,0,0,0,0,0,0,0,0,0,0,0,1,
scooby_state_50b9ec|37|14 0,1,0,0,0,0,0,0,0,0,0,0,0,0,0,1,
scooby_state_50ba86|9|-4 1,0,0,0,0,0,0,0,0,0,0,0,0,0,0,1,
scooby_state_50ba94|57|27 0,1,0,0,0,0,0,0,0,0,0,0,0,0,0,1,
scooby_state_50b390|3|-34 1,0,0,0,0,0,0,0,0,0,0,0,0,0,0,1,
scooby_state_50ba5e|3|-9 1,0,0,0,0,0,0,0,0,0,0,0,0,0,0,1,
scooby_state_50ba5e|34|12 0,1,0,0,0,0,0,0,0,0,0,0,0,0,0,1,
scooby_state_50ba5e|29|-33 1,0,0,0,0,0,0,0,0,0,0,0,0,0,0,1,
scooby_state_50b390|11|-31 1,0,0,0,0,0,0,0,0,0,0,0,0,0,0,1,
scooby_state_50ba69|43|42 0,1,0,0,0,0,0,0,0,0,0,0,0,0,0,1,
scooby_state_48ffde|60|9 1,0,0,0,0,0,0,0,0,0,0,0,0,0,0,1,
scooby_state_50ba86|48|-12 1,0,0,0,0,0,0,0,0,0,0,0,0,0,0,1,
scooby_state_50ba5e|26|-9 1,0,0,0,0,0,0,0,0,0,0,0,0,0,0,1,
scooby_state_50ba86|43|-19 1,0,0,0,0,0,0,0,0,0,0,0,0,0,0,1,
scooby_state_50b9ec|6|-17 0,1,0,0,0,0,0,0,0,0,0,0,0,0,0,1,
scooby_state_56e547|55|18 1,0,0,0,0,0,0,0,0,0,0,0,0,0,0,1,
scooby_state_50ba94|44|-3 0,1,0,0,0,0,0,0,0,0,0,0,0,0,0,1,
scooby_state_50ba77|41|16 1,0,0,0,0,0,0,0,0,0,0,0,0,0,0,1,
scooby_state_50ba90|26|-2 1,0,0,0,0,0,0,0,0,0,0,0,0,0,0,1,
scooby_state_50ba5e|0|-34 1,0,0,0,0,0,0,0,0,0,0,0,0,0,0,1,
scooby_state_50ba86|18|-20 1,0,0,0,0,0,0,0,0,0,0,0,0,0,0,1,
scooby_state_50b3ac|15|-16 0,0,0,1,0,0,0,0,0,0,0,0,0,0,0,1,
scooby_state_50b3ac|12|3 0,0,0,0,0,0,0,0,0,0,0,0,0,0,1,1,

scooby_action_0_deg_dist 0,113,0,0,0,0,0,0,0,0,0,0,0,0,0,0,
scooby_action_12_deg_dist 0,99,0,0,0,0,0,0,0,0,0,0,0,0,0,0,
scooby_action_4_deg_dist 0,173,1,0,0,0,0,0,0,0,0,0,0,0,0,0,
scooby_action_1_deg_dist 0,79622,37764,0,56607,0,39393,0,0,0,0,0,0,0,0,0,
scooby_action_30_deg_dist 0,50,0,0,0,0,0,0,0,0,0,0,0,0,0,0,
scooby_action_3_deg_dist 0,58488,18220,0,14891,0,1795,0,0,0,0,0,0,0,0,0,
scooby_action_32_deg_dist 0,91,0,0,0,0,0,0,0,0,0,0,0,0,0,0,
scooby_action_5_deg_dist 0,4645,0,0,0,0,0,0,0,0,0,0,0,0,0,0,
scooby_action_10_deg_dist 0,173,0,0,0,0,0,0,0,0,0,0,0,0,0,0,
scooby_action_-1_deg_dist 0,195,0,0,0,0,0,0,0,0,0,0,0,0,0,0,
scooby_action_23_deg_dist 0,128,1,0,0,0,0,0,0,0,0,0,0,0,0,0,
scooby_action_-6_deg_dist 0,162,0,0,0,0,0,0,0,0,0,0,0,0,0,0,
scooby_action_-3_deg_dist 0,51,0,0,0,0,0,0,0,0,0,0,0,0,0,0,
scooby_action_11_deg_dist 0,121,0,0,0,0,0,0,0,0,0,0,0,0,0,0,
scooby_action_22_deg_dist 0,150,0,0,0,0,0,0,0,0,0,0,0,0,0,0,

scooby_track_called 312933
scooby_track_same_address 37427
scooby_track_evict 275250

scooby_reward_demand_called 312933
scooby_reward_demand_pt_not_found 172668
scooby_reward_demand_pt_found 140265
scooby_reward_demand_pt_found_total 140265
scooby_reward_demand_has_reward 74
scooby_reward_train_called 126920
scooby_reward_assign_reward_called 275381
scooby_reward_no_pref 113
scooby_reward_incorrect 126807
scooby_reward_correct_untimely 67655
scooby_reward_correct_timely 72536
scooby_reward_out_of_bounds 8270
scooby_reward_tracker_hit 0

scooby_reward_none_low_bw 113
scooby_reward_none_high_bw 0
scooby_reward_incorrect_low_bw 126807
scooby_reward_incorrect_high_bw 0
scooby_reward_correct_untimely_low_bw 67655
scooby_reward_correct_untimely_high_bw 0
scooby_reward_correct_timely_low_bw 72536
scooby_reward_correct_timely_high_bw 0
scooby_reward_out_of_bounds_low_bw 8270
scooby_reward_out_of_bounds_high_bw 0
scooby_reward_tracker_hit_low_bw 0
scooby_reward_tracker_hit_high_bw 0

scooby_reward_1 0,84507,51236,49590,3166,0,
scooby_reward_3 0,38687,15946,22031,4470,0,
scooby_reward_4 0,103,16,16,14,0,
scooby_reward_5 0,2659,448,846,355,0,
scooby_reward_10 0,139,2,9,21,0,
scooby_reward_11 0,80,0,10,28,0,
scooby_reward_12 0,71,1,6,18,0,
scooby_reward_22 0,84,0,5,60,0,
scooby_reward_23 0,83,0,2,43,0,
scooby_reward_30 0,22,0,4,24,0,
scooby_reward_32 0,37,0,4,48,0,
scooby_reward_-1 0,165,3,7,4,0,
scooby_reward_-3 0,35,2,4,1,0,
scooby_reward_-6 0,135,1,2,18,0,
scooby_reward_0 113,0,0,0,0,0,

scooby_train_called 275249
scooby_train_compute_reward 126920

scooby_register_fill_called 274511
scooby_register_fill_set 146929
scooby_register_fill_set_total 146929

scooby_register_prefetch_hit_called 229249
scooby_register_prefetch_hit_set 138924
scooby_register_prefetch_hit_set_total 138924

scooby_pref_issue_scooby 633576

learning_engine_featurewise.action.called 312933
learning_engine_featurewise.action.explore 590
learning_engine_featurewise.action.exploit 312343
learning_engine_featurewise.action.fallback 0
learning_engine_featurewise.action.dyn_fallback_saved_bw 0
learning_engine_featurewise.action.dyn_fallback_saved_bw_acc 38385
learning_engine_featurewise.action.index_1_explored 35
learning_engine_featurewise.action.index_1_exploited 213351
learning_engine_featurewise.action.index_3_explored 40
learning_engine_featurewise.action.index_3_exploited 93354
learning_engine_featurewise.action.index_4_explored 30
learning_engine_featurewise.action.index_4_exploited 144
learning_engine_featurewise.action.index_5_explored 40
learning_engine_featurewise.action.index_5_exploited 4605
learning_engine_featurewise.action.index_10_explored 51
learning_engine_featurewise.action.index_10_exploited 122
learning_engine_featurewise.action.index_11_explored 36
learning_engine_featurewise.action.index_11_exploited 85
learning_engine_featurewise.action.index_12_explored 43
learning_engine_featurewise.action.index_12_exploited 56
learning_engine_featurewise.action.index_22_explored 44
learning_engine_featurewise.action.index_22_exploited 106
learning_engine_featurewise.action.index_23_explored 34
learning_engine_featurewise.action.index_23_exploited 95
learning_engine_featurewise.action.index_30_explored 44
learning_engine_featurewise.action.index_30_exploited 6
learning_engine_featurewise.action.index_32_explored 34
learning_engine_featurewise.action.index_32_exploited 57
learning_engine_featurewise.action.index_-1_explored 46
learning_engine_featurewise.action.index_-1_exploited 149
learning_engine_featurewise.action.index_-3_explored 36
learning_engine_featurewise.action.index_-3_exploited 15
learning_engine_featurewise.action.index_-6_explored 33
learning_engine_featurewise.action.index_-6_exploited 129
learning_engine_featurewise.action.index_0_explored 44
learning_engine_featurewise.action.index_0_exploited 69
learning_engine_featurewise.learn.called 275249
learning_engine_featurewise.learn.su_skip_PC 0
learning_engine_featurewise.learn.su_skip_PC_Delta 0

learning_engine_featurewise.q_value_histogram.bucket_0 0
learning_engine_featurewise.q_value_histogram.bucket_1 0
learning_engine_featurewise.q_value_histogram.bucket_2 0
learning_engine_featurewise.q_value_histogram.bucket_3 37
learning_engine_featurewise.q_value_histogram.bucket_4 18420
learning_engine_featurewise.q_value_histogram.bucket_5 101738
learning_engine_featurewise.q_value_histogram.bucket_6 192148
learning_engine_featurewise.q_value_histogram.bucket_7 0

learning_engine_featurewise.consensus.total 312343
learning_engine_featurewise.consensus.feature_align_PC 288498
learning_engine_featurewise.consensus.feature_align_PC_ratio 0.92
learning_engine_featurewise.consensus.feature_align_PC_Delta 254910
learning_engine_featurewise.consensus.feature_align_PC_Delta_ratio 0.82
learning_engine_featurewise.consensus.feature_align_all 231065
learning_engine_featurewise.consensus.feature_align_all_ratio 0.74

learning_engine_featurewise.feature_PC_min_weight 1000000.00000000
learning_engine_featurewise.feature_PC_max_weight 0.00000000
learning_engine_featurewise.feature_PC_Delta_min_weight 1000000.00000000
learning_engine_featurewise.feature_PC_Delta_max_weight 0.00000000
unique_pcs 1707
unique_pages 13031
unique_trigger_pcs 595
total_bitmaps_seen 0
unique_bitmaps_seen 0

scooby_bw_epochs 108876
scooby_bw_level_0 30203
scooby_bw_level_1 56035
scooby_bw_level_2 20279
scooby_bw_level_3 2359

scooby_ipc_epochs 0
scooby_ipc_level_0 0
scooby_ipc_level_1 0
scooby_ipc_level_2 0
scooby_ipc_level_3 0

scooby_cache_acc_epochs 24863
scooby_cache_acc_level_0 358
scooby_cache_acc_level_1 1204
scooby_cache_acc_level_2 3664
scooby_cache_acc_level_3 5191
scooby_cache_acc_level_4 5108
scooby_cache_acc_level_5 3887
scooby_cache_acc_level_6 2396
scooby_cache_acc_level_7 1356
scooby_cache_acc_level_8 734
scooby_cache_acc_level_9 965

Channel_0_RQ_row_buffer_hit 322414
Channel_0_RQ_row_buffer_miss 64094
Channel_0_WQ_row_buffer_hit 0
Channel_0_WQ_row_buffer_miss 12
Channel_0_WQ_full 0
Channel_0_dbus_congested 236715

avg_congested_cycle 9

DRAM_bw_pochs 108876
DRAM_bw_level_0 30203
DRAM_bw_level_1 56035
DRAM_bw_level_2 20279
DRAM_bw_level_3 2359
