Original cmd-> /cluster/home/vlnitu/CA-Lab4-24-vlnitu/Pythia/bin/perceptron-no-multi-no-ship-1core --warmup_instructions=1000000 --simulation_instructions=10000000 --l2c_prefetcher_types=scooby --config=/cluster/home/vlnitu/CA-Lab4-24-vlnitu/Pythia/config/pythia.ini --mail-type=BEGIN,END  -traces /cluster/home/vlnitu/CA-Lab4-24-vlnitu/Pythia/traces/602.gcc_s-2226B.champsimtrace.xz
*************************************************
   ChampSim Multicore Out-of-Order Simulator
   Last compiled: Nov 19 2024 20:10:11
*************************************************
parsing config file: /cluster/home/vlnitu/CA-Lab4-24-vlnitu/Pythia/config/pythia.ini
unable to parse section: , name: mail-type, value: BEGIN,END

trace_0 /cluster/home/vlnitu/CA-Lab4-24-vlnitu/Pythia/traces/602.gcc_s-2226B.champsimtrace.xz
adding L2C_PREFETCHER: Scooby
Initialize SHIP state
warmup_instructions 1000000
simulation_instructions 10000000
champsim_seed 270
measure_ipc 0
measure_ipc_epoch 1000
measure_dram_bw 1
measure_dram_bw_epoch 256
measure_cache_acc 1
measure_cache_acc_epoch 1024
l1d_perfect 0
l2c_perfect 0
llc_perfect 0
l1d_semi_perfect 0
l2c_semi_perfect 0
llc_semi_perfect 0
semi_perfect_cache_page_buffer_size 64

num_cpus 1
cpu_freq 4000
dram_io_freq 2400
page_size 4096
block_size 64
max_read_per_cycle 8
max_fill_per_cycle 1
dram_channels 1
log2_dram_channels 0
dram_ranks 1
dram_banks 8
dram_rows 65536
dram_columns 128
dram_row_size 8
dram_size 4096
dram_pages 1048576

fetch_width 6
decode_width 6
exec_width 4
lq_width 2
sq_width 2
retire_width 4
scheduler_size 128
branch_mispredict_penalty 20
rob_size 256
lq_size 72
sq_size 56
num_instr_destinations_sparc 4
num_instr_destinations 2
num_instr_sources 4

itlb_set 16
itlb_way 8
itlb_rq_size 16
itlb_wq_size 16
itlb_pq_size 0
itlb_mshr_size 8
itlb_latency 1

dtlb_set 16
dtlb_way 4
dtlb_rq_size 16
dtlb_wq_size 16
dtlb_pq_size 0
dtlb_mshr_size 8
dtlb_latency 1

stlb_set 128
stlb_way 12
stlb_rq_size 32
stlb_wq_size 32
stlb_pq_size 0
stlb_mshr_size 16
stlb_latency 8

l1i_size 32
l1i_set 64
l1i_way 8
l1i_rq_size 64
l1i_wq_size 64
l1i_pq_size 8
l1i_mshr_size 8
l1i_latency 1

l1d_size 32
l1d_set 64
l1d_way 8
l1d_rq_size 64
l1d_wq_size 64
l1d_pq_size 8
l1d_mshr_size 16
l1d_latency 4

l2c_size 256
l2c_set 512
l2c_way 8
l2c_rq_size 32
l2c_wq_size 32
l2c_pq_size 32
l2c_mshr_size 32
l2c_latency 10

llc_size 2048
llc_set 2048
llc_way 16
llc_rq_size 32
llc_wq_size 32
llc_pq_size 32
llc_mshr_size 64
llc_latency 20

dram_channel_width 8
dram_wq_size 64
dram_rq_size 64
tRP 15
tRCD 15
tCAS 12.5
dram_dbus_turn_around_time 30
dram_write_high_wm 56
dram_write_low_wm 48
min_dram_writes_per_switch 16
dram_mtps 2400
dram_dbus_return_time 13

scooby_alpha 0.0065088
scooby_gamma 0.556301
scooby_epsilon 0.00182284
scooby_state_num_bits 10
scooby_max_states 1024
scooby_seed 200
scooby_policy EGreedy
scooby_learning_type SARSA
scooby_actions 1,3,4,5,10,11,12,22,23,30,32,-1,-3,-6,0,
scooby_max_actions 15
scooby_pt_size 256
scooby_st_size 64
scooby_max_pcs 5
scooby_max_offsets 5
scooby_max_deltas 5
scooby_reward_none -4
scooby_reward_incorrect -8
scooby_reward_correct_untimely 12
scooby_reward_correct_timely 20
scooby_brain_zero_init 0
scooby_enable_reward_all 0
scooby_enable_track_multiple 0
scooby_enable_reward_out_of_bounds 1
scooby_reward_out_of_bounds -12
scooby_state_type 1
scooby_state_hash_type 11
scooby_access_debug 0
scooby_print_access_debug 0
scooby_print_access_debug_pc deadbeef
scooby_print_access_debug_pc_count 0
scooby_print_trace 0
scooby_enable_state_action_stats 1
scooby_enable_reward_tracker_hit 0
scooby_reward_tracker_hit -2
scooby_enable_featurewise_engine 1
scooby_pref_degree 1
scooby_enable_dyn_degree 1
scooby_max_to_avg_q_thresholds 0.5,1,2,
scooby_dyn_degrees 1,2,4,4,
scooby_multi_deg_select_type 2
scooby_last_pref_offset_conf_thresholds 1,3,8,
scooby_dyn_degrees_type2 1,2,4,6,
scooby_action_tracker_size 2
scooby_high_bw_thresh 4
scooby_enable_hbw_reward 1
scooby_reward_hbw_correct_timely 20
scooby_reward_hbw_correct_untimely 12
scooby_reward_hbw_incorrect -14
scooby_reward_hbw_none -2
scooby_reward_hbw_out_of_bounds -12
scooby_reward_hbw_tracker_hit -2
scooby_last_pref_offset_conf_thresholds_hbw 1,3,8,
scooby_dyn_degrees_type2_hbw 1,2,4,6,

le_enable_trace 0
le_trace_interval 0
le_trace_file_name 
le_trace_state 0
le_enable_score_plot 0
le_plot_file_name 
le_plot_actions 
le_enable_action_trace 0
le_action_trace_interval 0
le_action_trace_name 
le_enable_action_plot 0

le_featurewise_active_features PC, PC_Delta
le_featurewise_num_tilings 3,3,
le_featurewise_num_tiles 128,128,
le_featurewise_hash_types 2,2,
le_featurewise_enable_tiling_offset 1,1,
le_featurewise_max_q_thresh 0.5
le_featurewise_enable_action_fallback 1
le_featurewise_feature_weights 1,1,
le_featurewise_enable_dynamic_weight 0
le_featurewise_weight_gradient 0.001
le_featurewise_disable_adjust_weight_all_features_align 1
le_featurewise_selective_update 0
le_featurewise_pooling_type 2
le_featurewise_enable_dyn_action_fallback 1
le_featurewise_bw_acc_check_level 1
le_featurewise_acc_thresh 2
le_featurewise_enable_trace 0
le_featurewise_trace_feature_type 0
le_featurewise_trace_feature 
le_featurewise_trace_interval 0
le_featurewise_trace_record_count 0
le_featurewise_trace_file_name 
le_featurewise_enable_score_plot 0
le_featurewise_plot_actions 
le_featurewise_plot_file_name 


Heartbeat CPU  0 instructions:    1000003 cycles:     514318 heartbeat IPC: 1.94433 cumulative IPC: 1.94433 (Simulation time: 0 hr 0 min 2 sec) 

Warmup complete CPU  0 instructions:    1000003 cycles:     514318 (Simulation time: 0 hr 0 min 2 sec) 

Heartbeat CPU  0 instructions:    2000002 cycles:    3684682 heartbeat IPC: 0.31542 cumulative IPC: 0.31542 (Simulation time: 0 hr 0 min 4 sec) 
Heartbeat CPU  0 instructions:    3000001 cycles:    6864993 heartbeat IPC: 0.31443 cumulative IPC: 0.31493 (Simulation time: 0 hr 0 min 7 sec) 
Heartbeat CPU  0 instructions:    4000000 cycles:   10042432 heartbeat IPC: 0.31472 cumulative IPC: 0.31486 (Simulation time: 0 hr 0 min 9 sec) 
Heartbeat CPU  0 instructions:    5000001 cycles:   13212173 heartbeat IPC: 0.31548 cumulative IPC: 0.31501 (Simulation time: 0 hr 0 min 12 sec) 
Heartbeat CPU  0 instructions:    6000003 cycles:   16277504 heartbeat IPC: 0.32623 cumulative IPC: 0.31719 (Simulation time: 0 hr 0 min 15 sec) 
Heartbeat CPU  0 instructions:    7000000 cycles:   19427748 heartbeat IPC: 0.31743 cumulative IPC: 0.31723 (Simulation time: 0 hr 0 min 17 sec) 
Heartbeat CPU  0 instructions:    8000000 cycles:   22608511 heartbeat IPC: 0.31439 cumulative IPC: 0.31683 (Simulation time: 0 hr 0 min 20 sec) 
Heartbeat CPU  0 instructions:    9000000 cycles:   25776396 heartbeat IPC: 0.31567 cumulative IPC: 0.31668 (Simulation time: 0 hr 0 min 22 sec) 
Heartbeat CPU  0 instructions:   10000000 cycles:   28920536 heartbeat IPC: 0.31805 cumulative IPC: 0.31683 (Simulation time: 0 hr 0 min 25 sec) 
Heartbeat CPU  0 instructions:   11000000 cycles:   32084805 heartbeat IPC: 0.31603 cumulative IPC: 0.31675 (Simulation time: 0 hr 0 min 28 sec) 
Finished CPU 0 instructions: 10000002 cycles: 31570491 cumulative IPC: 0.31675 (Simulation time: 0 hr 0 min 28 sec) 

ChampSim completed all CPUs

[ROI Statistics]
Core_0_instructions 10000002
Core_0_cycles 31570491
Core_0_IPC 0.31675

Core_0_branch_prediction_accuracy 99.54650
Core_0_branch_MPKI 1.59670
Core_0_average_ROB_occupancy_at_mispredict 198.05123

Core_0_L1D_total_access 1814340
Core_0_L1D_total_hit 1095037
Core_0_L1D_total_miss 719303
Core_0_L1D_loads 1658112
Core_0_L1D_load_hit 939131
Core_0_L1D_load_miss 718981
Core_0_L1D_RFOs 156228
Core_0_L1D_RFO_hit 155906
Core_0_L1D_RFO_miss 322
Core_0_L1D_prefetches 0
Core_0_L1D_prefetch_hit 0
Core_0_L1D_prefetch_miss 0
Core_0_L1D_writebacks 0
Core_0_L1D_writeback_hit 0
Core_0_L1D_writeback_miss 0
Core_0_L1D_prefetch_requested 0
Core_0_L1D_prefetch_dropped 0
Core_0_L1D_prefetch_issued 0
Core_0_L1D_prefetch_filled 0
Core_0_L1D_prefetch_useful 0
Core_0_L1D_prefetch_useless 0
Core_0_L1D_prefetch_late 0
Core_0_L1D_average_miss_latency 22.01461

Core_0_L1D_rq_access 3571133
Core_0_L1D_rq_forward 0
Core_0_L1D_rq_merged 1881941
Core_0_L1D_rq_to_cache 1689192
Core_0_L1D_rq_full 0

Core_0_L1D_wq_access 156233
Core_0_L1D_wq_forward 0
Core_0_L1D_wq_merged 0
Core_0_L1D_wq_to_cache 156233
Core_0_L1D_wq_full 0

Core_0_L1D_pq_access 0
Core_0_L1D_pq_forward 0
Core_0_L1D_pq_merged 0
Core_0_L1D_pq_to_cache 0
Core_0_L1D_pq_full 0

Core_0_L1D_acc_epochs 29992
Core_0_L1D_acc_level_0 29992
Core_0_L1D_acc_level_1 0
Core_0_L1D_acc_level_2 0
Core_0_L1D_acc_level_3 0
Core_0_L1D_acc_level_4 0
Core_0_L1D_acc_level_5 0
Core_0_L1D_acc_level_6 0
Core_0_L1D_acc_level_7 0
Core_0_L1D_acc_level_8 0
Core_0_L1D_acc_level_9 0

Core_0_L1I_total_access 3569568
Core_0_L1I_total_hit 3569531
Core_0_L1I_total_miss 37
Core_0_L1I_loads 3569568
Core_0_L1I_load_hit 3569531
Core_0_L1I_load_miss 37
Core_0_L1I_RFOs 0
Core_0_L1I_RFO_hit 0
Core_0_L1I_RFO_miss 0
Core_0_L1I_prefetches 0
Core_0_L1I_prefetch_hit 0
Core_0_L1I_prefetch_miss 0
Core_0_L1I_writebacks 0
Core_0_L1I_writeback_hit 0
Core_0_L1I_writeback_miss 0
Core_0_L1I_prefetch_requested 0
Core_0_L1I_prefetch_dropped 0
Core_0_L1I_prefetch_issued 0
Core_0_L1I_prefetch_filled 0
Core_0_L1I_prefetch_useful 0
Core_0_L1I_prefetch_useless 0
Core_0_L1I_prefetch_late 0
Core_0_L1I_average_miss_latency 162.89189

Core_0_L1I_rq_access 10000074
Core_0_L1I_rq_forward 0
Core_0_L1I_rq_merged 6430501
Core_0_L1I_rq_to_cache 3569573
Core_0_L1I_rq_full 0

Core_0_L1I_wq_access 0
Core_0_L1I_wq_forward 0
Core_0_L1I_wq_merged 0
Core_0_L1I_wq_to_cache 0
Core_0_L1I_wq_full 0

Core_0_L1I_pq_access 0
Core_0_L1I_pq_forward 0
Core_0_L1I_pq_merged 0
Core_0_L1I_pq_to_cache 0
Core_0_L1I_pq_full 0

Core_0_L1I_acc_epochs 29992
Core_0_L1I_acc_level_0 29992
Core_0_L1I_acc_level_1 0
Core_0_L1I_acc_level_2 0
Core_0_L1I_acc_level_3 0
Core_0_L1I_acc_level_4 0
Core_0_L1I_acc_level_5 0
Core_0_L1I_acc_level_6 0
Core_0_L1I_acc_level_7 0
Core_0_L1I_acc_level_8 0
Core_0_L1I_acc_level_9 0

Core_0_L2C_total_access 2620560
Core_0_L2C_total_hit 1909646
Core_0_L2C_total_miss 710914
Core_0_L2C_loads 719018
Core_0_L2C_load_hit 652276
Core_0_L2C_load_miss 66742
Core_0_L2C_RFOs 322
Core_0_L2C_RFO_hit 137
Core_0_L2C_RFO_miss 185
Core_0_L2C_prefetches 1898675
Core_0_L2C_prefetch_hit 1254688
Core_0_L2C_prefetch_miss 643987
Core_0_L2C_writebacks 2545
Core_0_L2C_writeback_hit 2545
Core_0_L2C_writeback_miss 0
Core_0_L2C_prefetch_requested 3851833
Core_0_L2C_prefetch_dropped 0
Core_0_L2C_prefetch_issued 3851833
Core_0_L2C_prefetch_filled 713982
Core_0_L2C_prefetch_useful 696587
Core_0_L2C_prefetch_useless 17297
Core_0_L2C_prefetch_late 49203
Core_0_L2C_average_miss_latency 105.46259

Core_0_L2C_rq_access 719340
Core_0_L2C_rq_forward 0
Core_0_L2C_rq_merged 0
Core_0_L2C_rq_to_cache 719340
Core_0_L2C_rq_full 0

Core_0_L2C_wq_access 2545
Core_0_L2C_wq_forward 0
Core_0_L2C_wq_merged 0
Core_0_L2C_wq_to_cache 2545
Core_0_L2C_wq_full 0

Core_0_L2C_pq_access 3851833
Core_0_L2C_pq_forward 0
Core_0_L2C_pq_merged 69799
Core_0_L2C_pq_to_cache 3782034
Core_0_L2C_pq_full 0

Core_0_L2C_acc_epochs 29992
Core_0_L2C_acc_level_0 39
Core_0_L2C_acc_level_1 6
Core_0_L2C_acc_level_2 34
Core_0_L2C_acc_level_3 134
Core_0_L2C_acc_level_4 370
Core_0_L2C_acc_level_5 472
Core_0_L2C_acc_level_6 610
Core_0_L2C_acc_level_7 1045
Core_0_L2C_acc_level_8 2309
Core_0_L2C_acc_level_9 24973

Core_0_LLC_total_access 712090
Core_0_LLC_total_hit 1853
Core_0_LLC_total_miss 710237
Core_0_LLC_loads 17716
Core_0_LLC_load_hit 126
Core_0_LLC_load_miss 17590
Core_0_LLC_RFOs 13
Core_0_LLC_RFO_hit 1
Core_0_LLC_RFO_miss 12
Core_0_LLC_prefetches 693186
Core_0_LLC_prefetch_hit 1651
Core_0_LLC_prefetch_miss 691535
Core_0_LLC_writebacks 1175
Core_0_LLC_writeback_hit 75
Core_0_LLC_writeback_miss 1100
Core_0_LLC_prefetch_requested 0
Core_0_LLC_prefetch_dropped 0
Core_0_LLC_prefetch_issued 0
Core_0_LLC_prefetch_filled 761254
Core_0_LLC_prefetch_useful 44
Core_0_LLC_prefetch_useless 730905
Core_0_LLC_prefetch_late 0
Core_0_LLC_average_miss_latency 79.00589

Core_0_LLC_rq_access 17729
Core_0_LLC_rq_forward 0
Core_0_LLC_rq_merged 0
Core_0_LLC_rq_to_cache 17729
Core_0_LLC_rq_full 0

Core_0_LLC_wq_access 1175
Core_0_LLC_wq_forward 0
Core_0_LLC_wq_merged 0
Core_0_LLC_wq_to_cache 1175
Core_0_LLC_wq_full 0

Core_0_LLC_pq_access 763188
Core_0_LLC_pq_forward 0
Core_0_LLC_pq_merged 0
Core_0_LLC_pq_to_cache 763188
Core_0_LLC_pq_full 0

Core_0_LLC_acc_epochs 31333
Core_0_LLC_acc_level_0 31317
Core_0_LLC_acc_level_1 9
Core_0_LLC_acc_level_2 4
Core_0_LLC_acc_level_3 0
Core_0_LLC_acc_level_4 0
Core_0_LLC_acc_level_5 3
Core_0_LLC_acc_level_6 0
Core_0_LLC_acc_level_7 0
Core_0_LLC_acc_level_8 0
Core_0_LLC_acc_level_9 0

Core_0_major_page_fault 0
Core_0_minor_page_fault 15051

scooby_st_lookup 791816
scooby_st_hit 776307
scooby_st_evict 15445
scooby_st_insert 15509
scooby_st_streaming 0

scooby_predict_called 791816
scooby_predict_out_of_bounds 14382
scooby_predict_action_1 753871
scooby_predict_issue_action_1 749246
scooby_predict_hit_action_1 4625
scooby_predict_out_of_bounds_action_1 11853
scooby_predict_action_3 12656
scooby_predict_issue_action_3 12650
scooby_predict_hit_action_3 6
scooby_predict_out_of_bounds_action_3 1393
scooby_predict_action_4 1579
scooby_predict_issue_action_4 1575
scooby_predict_hit_action_4 4
scooby_predict_out_of_bounds_action_4 90
scooby_predict_action_5 470
scooby_predict_issue_action_5 468
scooby_predict_hit_action_5 2
scooby_predict_out_of_bounds_action_5 42
scooby_predict_action_10 454
scooby_predict_issue_action_10 454
scooby_predict_hit_action_10 0
scooby_predict_out_of_bounds_action_10 63
scooby_predict_action_11 416
scooby_predict_issue_action_11 416
scooby_predict_hit_action_11 0
scooby_predict_out_of_bounds_action_11 82
scooby_predict_action_12 439
scooby_predict_issue_action_12 439
scooby_predict_hit_action_12 0
scooby_predict_out_of_bounds_action_12 79
scooby_predict_action_22 324
scooby_predict_issue_action_22 324
scooby_predict_hit_action_22 0
scooby_predict_out_of_bounds_action_22 148
scooby_predict_action_23 306
scooby_predict_issue_action_23 306
scooby_predict_hit_action_23 0
scooby_predict_out_of_bounds_action_23 160
scooby_predict_action_30 293
scooby_predict_issue_action_30 293
scooby_predict_hit_action_30 0
scooby_predict_out_of_bounds_action_30 205
scooby_predict_action_32 252
scooby_predict_issue_action_32 252
scooby_predict_hit_action_32 0
scooby_predict_out_of_bounds_action_32 188
scooby_predict_action_-1 3732
scooby_predict_issue_action_-1 2403
scooby_predict_hit_action_-1 1329
scooby_predict_out_of_bounds_action_-1 16
scooby_predict_action_-3 487
scooby_predict_issue_action_-3 404
scooby_predict_hit_action_-3 83
scooby_predict_out_of_bounds_action_-3 24
scooby_predict_action_-6 449
scooby_predict_issue_action_-6 384
scooby_predict_hit_action_-6 65
scooby_predict_out_of_bounds_action_-6 39
scooby_predict_action_0 1706
scooby_predict_issue_action_0 0
scooby_predict_hit_action_0 0
scooby_predict_out_of_bounds_action_0 0
scooby_predict_multi_deg_called 699539
scooby_predict_predicted 3851833
scooby_predict_multi_deg 3082219
scooby_predict_multi_deg_2 687838
scooby_predict_multi_deg_3 648899
scooby_predict_multi_deg_4 637286
scooby_predict_multi_deg_5 559822
scooby_predict_multi_deg_6 548374
scooby_predict_multi_deg_7 0
scooby_predict_multi_deg_8 0
scooby_predict_multi_deg_9 0
scooby_predict_multi_deg_10 0
scooby_predict_multi_deg_11 0
scooby_predict_multi_deg_12 0
scooby_predict_multi_deg_13 0
scooby_predict_multi_deg_14 0
scooby_predict_multi_deg_15 0
scooby_predict_multi_deg_16 0

scooby_selected_deg_1 70075
scooby_selected_deg_2 27393
scooby_selected_deg_3 0
scooby_selected_deg_4 66427
scooby_selected_deg_5 0
scooby_selected_deg_6 605719
scooby_selected_deg_7 0
scooby_selected_deg_8 0
scooby_selected_deg_9 0
scooby_selected_deg_10 0
scooby_selected_deg_11 0
scooby_selected_deg_12 0
scooby_selected_deg_13 0
scooby_selected_deg_14 0
scooby_selected_deg_15 0
scooby_selected_deg_16 0

scooby_state_40f7c0|0|0 11705,1,0,0,2,1,0,1,0,0,2,1,2,0,2,11717,
scooby_state_40f7c0|1|1 11634,1,0,2,4,2,2,4,0,1,2,1,1,0,1,11655,
scooby_state_40f7c0|9|1 11634,0,1,0,0,2,4,2,0,1,5,0,1,0,1,11651,
scooby_state_40f7c0|39|1 11622,0,1,1,3,1,1,1,2,4,1,2,3,0,1,11643,
scooby_state_40f7c0|36|1 11629,1,3,0,1,0,0,1,0,0,2,2,1,0,1,11641,
scooby_state_40f7c0|62|1 11621,1,0,2,5,1,2,0,2,1,1,0,2,2,0,11640,
scooby_state_40f7c0|8|1 11621,1,1,2,0,3,3,2,1,1,0,1,1,0,0,11637,
scooby_state_40f7c0|63|1 11617,2,2,0,0,2,0,1,3,3,0,1,3,1,0,11635,
scooby_state_40f7c0|13|1 11612,3,0,3,2,3,1,1,1,1,1,2,0,1,1,11632,
scooby_state_40f7c0|47|1 11610,3,2,1,1,2,2,0,1,2,1,3,1,1,2,11632,
scooby_state_40f7c0|37|1 11606,0,1,3,2,2,3,3,1,2,1,3,2,0,2,11631,
scooby_state_40f7c0|38|1 11607,4,2,2,1,0,2,3,3,1,0,3,0,0,2,11630,
scooby_state_40f7c0|40|1 11605,2,2,1,2,0,2,2,1,5,1,0,1,2,2,11628,
scooby_state_40f7c0|43|1 11614,0,0,2,2,1,1,1,2,1,0,0,1,1,2,11628,
scooby_state_40f7c0|41|1 11601,3,0,3,1,5,0,1,0,2,2,2,2,3,1,11626,
scooby_state_40f7c0|12|1 11615,1,0,0,1,0,0,0,2,0,1,2,0,1,1,11624,
scooby_state_40f7c0|30|1 11608,1,3,2,1,2,0,1,1,1,1,0,1,0,2,11624,
scooby_state_40f7c0|45|1 11605,2,1,1,0,1,2,1,2,1,1,1,1,3,0,11622,
scooby_state_40f7c0|11|1 11597,1,2,4,0,2,2,2,2,2,1,2,2,1,1,11621,
scooby_state_40f7c0|42|1 11594,3,0,2,1,3,1,1,1,2,1,2,3,4,0,11618,
scooby_state_40f7c0|35|1 11597,3,1,2,1,2,4,1,0,1,1,0,2,1,0,11616,
scooby_state_40f7c0|10|1 11591,4,1,1,1,1,0,2,0,4,3,0,2,3,1,11614,
scooby_state_40f7c0|7|1 11591,2,2,0,3,2,1,2,2,1,1,4,2,0,1,11614,
scooby_state_40f7c0|31|1 11599,1,2,0,2,0,1,1,1,1,0,2,1,0,3,11614,
scooby_state_40f7c0|52|1 11593,2,1,1,0,1,2,1,0,1,2,2,1,3,3,11613,
scooby_state_40f7c0|46|1 11597,0,1,0,1,2,2,1,1,2,1,1,1,0,2,11612,
scooby_state_40f7c0|15|1 11581,4,2,2,1,1,1,1,4,3,2,0,2,3,3,11610,
scooby_state_40f7c0|33|1 11583,1,3,2,3,2,2,1,2,2,1,3,1,2,1,11609,
scooby_state_40f7c0|44|1 11583,3,2,4,3,1,3,2,2,0,2,0,1,2,1,11609,
scooby_state_40f7c0|18|1 11595,2,2,0,2,1,0,2,1,0,0,0,2,0,1,11608,
scooby_state_40f7c0|57|1 11597,0,1,2,0,0,2,0,0,2,0,1,1,1,0,11607,
scooby_state_40f7c0|56|1 11580,2,0,4,1,1,2,2,2,3,1,2,0,4,2,11606,
scooby_state_40f7c0|29|1 11583,2,1,1,2,0,0,1,4,2,1,1,5,1,2,11606,
scooby_state_40f7c0|28|1 11588,1,2,0,2,0,1,5,1,3,1,0,1,0,1,11606,
scooby_state_40f7c0|48|1 11589,2,1,1,3,0,0,5,1,0,0,0,2,1,0,11605,
scooby_state_40f7c0|50|1 11591,1,0,0,2,0,1,2,1,1,0,1,1,0,3,11604,
scooby_state_40f7c0|51|1 11577,1,4,2,3,2,5,1,1,3,0,1,3,0,1,11604,
scooby_state_40f7c0|6|1 11580,0,3,2,0,1,3,1,1,1,4,1,4,0,2,11603,
scooby_state_40f7c0|3|1 11583,1,2,1,2,0,1,2,1,3,0,0,1,2,2,11601,
scooby_state_40f7c0|61|1 11575,3,2,2,0,3,2,1,3,1,2,2,2,1,2,11601,
scooby_state_40f7c0|4|1 11580,0,3,0,2,2,1,2,0,3,2,1,1,2,2,11601,
scooby_state_40f7c0|54|1 11581,3,2,2,0,1,0,5,0,0,2,1,1,1,0,11599,
scooby_state_40f7c0|34|1 11579,2,0,1,0,2,2,2,2,3,2,1,2,0,1,11599,
scooby_state_40f7c0|49|1 11585,1,0,0,2,1,2,0,2,1,2,0,0,1,2,11599,
scooby_state_40f7c0|53|1 11581,1,1,1,2,2,1,1,3,1,0,2,0,1,1,11598,
scooby_state_40f7c0|25|1 11575,0,1,3,1,1,3,3,0,1,1,1,1,2,1,11594,
scooby_state_40f7c0|60|1 11572,0,2,0,0,2,3,0,2,2,2,1,2,3,2,11593,
scooby_state_40f7c0|19|1 11569,2,1,2,4,1,2,2,2,1,1,3,0,1,2,11593,
scooby_state_40f7c0|14|1 11572,2,1,0,2,1,0,1,3,1,1,3,3,2,1,11593,
scooby_state_40f7c0|5|1 11575,1,1,2,0,0,1,1,3,1,1,1,3,2,0,11592,
scooby_state_40f7c0|32|1 11571,0,0,2,1,0,3,2,1,2,2,4,1,1,1,11591,
scooby_state_40f7c0|17|1 11570,1,3,0,1,3,2,1,3,0,2,2,0,2,1,11591,
scooby_state_40f7c0|26|1 11564,0,3,2,4,1,1,0,0,4,1,1,2,3,2,11588,
scooby_state_40f7c0|55|1 11562,1,3,3,2,1,2,2,3,2,2,3,0,0,2,11588,
scooby_state_40f7c0|2|1 11557,2,1,1,3,0,3,2,2,2,2,5,1,2,4,11587,
scooby_state_40f7c0|27|1 11562,2,1,4,3,0,0,1,0,1,0,2,2,3,2,11583,
scooby_state_40f7c0|58|1 11562,2,0,1,3,2,3,0,2,1,1,2,1,0,2,11582,
scooby_state_40f7c0|23|1 11562,2,3,0,2,0,2,1,0,1,3,1,2,2,0,11581,
scooby_state_40f7c0|20|1 11560,3,1,0,2,2,0,1,2,0,2,1,1,1,1,11577,
scooby_state_40f7c0|16|1 11561,0,1,0,0,4,3,1,1,1,0,0,1,0,2,11575,
scooby_state_40f7c0|24|1 11555,2,1,3,0,0,1,2,1,1,1,2,0,2,3,11574,
scooby_state_40f7c0|59|1 11544,3,1,2,2,5,2,1,3,2,1,1,0,1,3,11571,
scooby_state_40f7c0|22|1 11552,2,3,5,2,0,0,0,0,1,2,1,0,1,1,11570,
scooby_state_40f7c0|21|1 11538,1,2,1,2,3,4,2,3,1,0,2,2,0,3,11564,
scooby_state_a4c416|61|0 36,1185,8,9,9,9,8,9,9,9,8,14,14,14,42,1383,
scooby_state_40f7b9|58|6 1349,33,0,0,0,0,0,0,0,0,0,0,0,0,0,1382,
scooby_state_a4c43f|25|1 737,42,43,43,43,43,43,43,43,43,42,43,44,43,86,1381,
scooby_state_a52679|14|-1 685,46,47,46,46,46,45,45,46,47,47,46,47,45,97,1381,
scooby_state_40f797|46|0 566,53,65,54,55,56,54,34,31,32,33,52,56,49,191,1381,
scooby_state_a4c41d|24|-1 1379,1,0,0,0,0,0,0,0,0,0,0,0,0,0,1380,
scooby_state_40f7b9|52|-6 1,1376,0,0,1,0,0,0,0,1,0,1,0,0,0,1380,
scooby_state_40f8df|13|-1 1379,0,0,0,1,0,0,0,0,0,0,0,0,0,0,1380,
scooby_state_40f7b9|43|-1 1,1296,0,1,0,0,0,0,0,0,0,0,1,0,0,1299,
scooby_state_40f7b9|12|0 1,1288,1,0,0,0,0,0,0,1,0,0,0,0,0,1291,
scooby_state_40f7b9|51|0 1,1189,0,1,0,0,0,1,0,0,0,0,0,0,0,1192,
scooby_state_40f886|44|-1 3,0,3,1,1,1,3,1,2,1,1,1033,1,0,0,1051,
scooby_state_40f7b9|45|2 0,1034,0,0,0,0,0,0,0,0,0,0,0,0,1,1035,
scooby_state_a525bd|15|2 48,6,5,6,6,5,5,6,6,5,5,855,5,6,31,1000,
scooby_state_40f7b9|53|0 0,713,0,0,0,0,0,0,0,1,0,0,0,0,0,714,
scooby_state_40f70a|59|0 670,0,0,0,0,0,0,0,0,0,0,0,0,0,0,670,
scooby_state_40f70a|59|1 1,5,3,3,1,3,4,1,1,2,3,2,2,2,604,637,
scooby_state_40f7b9|58|-1 0,634,0,0,0,1,0,0,0,0,0,0,0,0,0,635,
scooby_state_a525d9|15|2 22,0,0,0,0,0,0,0,0,0,0,360,0,0,0,382,
scooby_state_40f886|44|1 1,1,1,1,0,1,1,0,0,0,0,257,0,0,0,263,
scooby_state_40f7b9|36|0 1,173,0,0,0,0,0,0,0,0,0,0,0,0,0,174,
scooby_state_40f7c0|34|2 115,0,0,0,1,0,0,0,0,0,0,0,0,0,0,116,
scooby_state_40f7c0|22|2 110,0,0,0,0,0,0,0,0,0,0,1,0,0,0,111,
scooby_state_40f7c0|21|2 110,0,0,0,0,0,0,0,0,0,0,0,0,0,0,110,
scooby_state_40f7c0|27|2 110,0,0,0,0,0,0,0,0,0,0,0,0,0,0,110,
scooby_state_40f7c0|16|2 110,0,0,0,0,0,0,0,0,0,0,0,0,0,0,110,
scooby_state_40f7c0|2|2 108,0,0,0,0,0,0,1,0,0,0,0,1,0,0,110,
scooby_state_40f7c0|17|2 108,0,0,0,0,0,0,0,0,0,0,0,0,0,0,108,
scooby_state_40f7c0|49|2 107,0,0,0,0,0,0,0,0,0,0,0,0,0,0,107,
scooby_state_40f7c0|25|2 106,0,0,0,1,0,0,0,0,0,0,0,0,0,0,107,
scooby_state_40f7c0|26|2 106,0,0,0,0,0,0,0,0,0,0,1,0,0,0,107,
scooby_state_40f7c0|55|2 107,0,0,0,0,0,0,0,0,0,0,0,0,0,0,107,
scooby_state_40f7c0|20|2 107,0,0,0,0,0,0,0,0,0,0,0,0,0,0,107,
scooby_state_40f7c0|50|2 105,0,0,0,0,0,0,0,0,1,0,0,0,0,0,106,
scooby_state_40f7c0|52|2 106,0,0,0,0,0,0,0,0,0,0,0,0,0,0,106,
scooby_state_40f7c0|15|2 105,0,0,0,0,0,0,0,0,0,0,0,0,0,0,105,
scooby_state_40f7c0|24|2 104,0,0,0,0,0,0,0,0,0,0,0,0,0,0,104,
scooby_state_40f7c0|51|2 104,0,0,0,0,0,0,0,0,0,0,0,0,0,0,104,
scooby_state_40f7c0|42|2 104,0,0,0,0,0,0,0,0,0,0,0,0,0,0,104,
scooby_state_40f7c0|19|2 103,0,0,0,0,0,0,0,0,0,0,0,0,0,0,103,
scooby_state_40f7c0|18|2 103,0,0,0,0,0,0,0,0,0,0,0,0,0,0,103,
scooby_state_40f7c0|23|2 102,0,0,0,0,0,0,0,0,0,0,0,1,0,0,103,
scooby_state_40f7c0|6|2 102,0,0,0,1,0,0,0,0,0,0,0,0,0,0,103,
scooby_state_40f7c0|54|2 103,0,0,0,0,0,0,0,0,0,0,0,0,0,0,103,
scooby_state_40f7c0|37|2 102,0,0,0,0,0,0,0,0,0,0,0,0,0,0,102,
scooby_state_40f7c0|28|2 101,0,1,0,0,0,0,0,0,0,0,0,0,0,0,102,
scooby_state_40f7c0|60|2 102,0,0,0,0,0,0,0,0,0,0,0,0,0,0,102,
scooby_state_40f7c0|38|2 102,0,0,0,0,0,0,0,0,0,0,0,0,0,0,102,
scooby_state_40f7c0|41|2 101,0,0,0,0,0,0,0,0,0,0,0,0,0,0,101,
scooby_state_40f7c0|56|2 101,0,0,0,0,0,0,0,0,0,0,0,0,0,0,101,
scooby_state_40f7c0|35|2 100,0,0,0,0,0,0,0,0,0,0,0,0,0,0,100,
scooby_state_40f7c0|61|2 100,0,0,0,0,0,0,0,0,0,0,0,0,0,0,100,
scooby_state_40f7c0|32|2 100,0,0,0,0,0,0,0,0,0,0,0,0,0,0,100,
scooby_state_40f7c0|3|2 99,0,0,0,0,0,0,0,0,0,0,0,0,0,0,99,
scooby_state_40f7c0|33|2 99,0,0,0,0,0,0,0,0,0,0,0,0,0,0,99,
scooby_state_40f7c0|40|2 99,0,0,0,0,0,0,0,0,0,0,0,0,0,0,99,
scooby_state_40f7c0|1|0 99,0,0,0,0,0,0,0,0,0,0,0,0,0,0,99,
scooby_state_40f7c0|44|2 98,0,0,0,0,0,0,0,0,0,0,0,0,0,0,98,
scooby_state_40f7c0|14|2 97,0,1,0,0,0,0,0,0,0,0,0,0,0,0,98,
scooby_state_40f7c0|43|2 98,0,0,0,0,0,0,0,0,0,0,0,0,0,0,98,
scooby_state_40f7c0|45|2 98,0,0,0,0,0,0,0,0,0,0,0,0,0,0,98,
scooby_state_40f7c0|4|2 98,0,0,0,0,0,0,0,0,0,0,0,0,0,0,98,
scooby_state_40f7c0|36|2 97,0,0,0,0,0,0,0,0,0,0,0,0,0,0,97,
scooby_state_40f7c0|5|2 97,0,0,0,0,0,0,0,0,0,0,0,0,0,0,97,
scooby_state_40f7c0|53|2 97,0,0,0,0,0,0,0,0,0,0,0,0,0,0,97,
scooby_state_40f7c0|59|2 97,0,0,0,0,0,0,0,0,0,0,0,0,0,0,97,
scooby_state_40f7c0|7|2 97,0,0,0,0,0,0,0,0,0,0,0,0,0,0,97,
scooby_state_40f7c0|57|2 96,0,0,0,0,0,0,0,0,0,0,0,0,0,0,96,
scooby_state_40f7c0|11|2 95,0,0,0,0,0,0,0,0,0,0,0,0,0,0,95,
scooby_state_40f7c0|39|2 94,0,0,0,0,0,0,0,1,0,0,0,0,0,0,95,
scooby_state_40f7c0|13|2 93,0,0,0,0,0,0,0,0,0,0,0,0,0,0,93,
scooby_state_40f7c0|58|2 91,0,0,0,0,0,0,0,0,0,0,0,0,0,0,91,
scooby_state_40f7c0|30|2 91,0,0,0,0,0,0,0,0,0,0,0,0,0,0,91,
scooby_state_40f7c0|46|2 90,0,0,0,0,0,0,0,0,0,0,0,0,0,0,90,
scooby_state_40f7c0|29|2 89,0,0,0,0,0,0,0,0,0,0,0,0,0,0,89,
scooby_state_40f7c0|12|2 89,0,0,0,0,0,0,0,0,0,0,0,0,0,0,89,
scooby_state_40f7c0|31|2 88,0,0,0,0,0,0,0,0,0,0,0,0,0,0,88,
scooby_state_40f7c0|8|2 84,0,0,0,0,0,0,1,0,0,0,0,0,0,0,85,
scooby_state_40f7c0|48|2 83,0,0,0,0,0,0,0,0,0,0,0,0,0,0,83,
scooby_state_40f7c0|10|2 80,0,0,0,0,0,0,0,0,0,0,0,0,0,0,80,
scooby_state_40f7c0|9|2 77,0,0,0,0,0,0,0,0,0,0,0,0,0,0,77,
scooby_state_40f70f|61|1 77,0,0,0,0,0,0,0,0,0,0,0,0,0,0,77,
scooby_state_40f7c0|62|2 75,0,0,0,0,0,0,0,0,0,0,0,0,0,0,75,
scooby_state_40f7c0|47|2 75,0,0,0,0,0,0,0,0,0,0,0,0,0,0,75,
scooby_state_40f70f|14|1 72,0,0,0,0,0,0,0,0,0,0,0,0,0,0,72,
scooby_state_40f70f|46|1 71,0,0,0,0,0,0,0,0,0,0,0,0,0,0,71,
scooby_state_40f70f|58|1 71,0,0,0,0,0,0,0,0,0,0,0,0,0,0,71,
scooby_state_40f70f|34|1 69,0,0,0,0,0,0,0,0,0,0,0,0,0,0,69,
scooby_state_40f70f|16|1 69,0,0,0,0,0,0,0,0,0,0,0,0,0,0,69,
scooby_state_40f70f|48|1 68,0,0,0,0,0,0,0,0,0,0,0,0,0,0,68,
scooby_state_40f70f|63|1 67,0,0,0,0,0,0,0,0,0,0,0,0,1,0,68,
scooby_state_40f70f|32|1 68,0,0,0,0,0,0,0,0,0,0,0,0,0,0,68,
scooby_state_40f7c0|63|2 66,0,0,0,0,0,0,0,0,0,0,0,0,0,1,67,
scooby_state_40f70f|2|1 67,0,0,0,0,0,0,0,0,0,0,0,0,0,0,67,
scooby_state_40f70f|1|1 67,0,0,0,0,0,0,0,0,0,0,0,0,0,0,67,
scooby_state_40f70f|5|1 66,0,0,0,0,0,0,0,0,0,0,0,0,0,0,66,
scooby_state_40f7cb|59|-1 1,64,0,0,0,0,0,0,0,0,0,0,0,0,0,65,
scooby_state_40f7cb|55|-1 0,65,0,0,0,0,0,0,0,0,0,0,0,0,0,65,
scooby_state_40f7cb|20|-1 0,64,0,0,0,0,0,0,0,0,0,0,0,0,0,64,
scooby_state_40f70f|12|1 64,0,0,0,0,0,0,0,0,0,0,0,0,0,0,64,
scooby_state_40f70f|22|1 64,0,0,0,0,0,0,0,0,0,0,0,0,0,0,64,
scooby_state_40f7cb|26|-1 0,64,0,0,0,0,0,0,0,0,0,0,0,0,0,64,
scooby_state_40f70f|51|1 63,0,0,0,0,0,1,0,0,0,0,0,0,0,0,64,
scooby_state_40f70f|24|1 64,0,0,0,0,0,0,0,0,0,0,0,0,0,0,64,
scooby_state_40f70f|44|1 63,0,0,0,0,0,0,0,0,0,0,0,0,0,0,63,
scooby_state_40f70f|40|1 63,0,0,0,0,0,0,0,0,0,0,0,0,0,0,63,
scooby_state_40f70f|59|1 63,0,0,0,0,0,0,0,0,0,0,0,0,0,0,63,
scooby_state_40f70f|43|1 63,0,0,0,0,0,0,0,0,0,0,0,0,0,0,63,
scooby_state_40f70f|10|1 63,0,0,0,0,0,0,0,0,0,0,0,0,0,0,63,
scooby_state_40f70f|7|1 63,0,0,0,0,0,0,0,0,0,0,0,0,0,0,63,
scooby_state_40f7cb|25|-1 0,63,0,0,0,0,0,0,0,0,0,0,0,0,0,63,
scooby_state_40f70f|53|1 62,0,0,0,0,0,0,0,0,0,0,0,0,0,0,62,
scooby_state_40f70f|35|1 61,0,0,0,0,0,0,0,1,0,0,0,0,0,0,62,
scooby_state_40f70f|41|1 62,0,0,0,0,0,0,0,0,0,0,0,0,0,0,62,
scooby_state_40f70f|26|1 62,0,0,0,0,0,0,0,0,0,0,0,0,0,0,62,
scooby_state_40f70f|39|1 62,0,0,0,0,0,0,0,0,0,0,0,0,0,0,62,
scooby_state_40f7cb|0|-1 0,61,0,0,0,0,0,0,0,0,0,0,0,0,0,61,
scooby_state_40f7cb|15|-1 0,61,0,0,0,0,0,0,0,0,0,0,0,0,0,61,
scooby_state_40f7cb|38|-1 0,61,0,0,0,0,0,0,0,0,0,0,0,0,0,61,
scooby_state_40f70f|49|1 61,0,0,0,0,0,0,0,0,0,0,0,0,0,0,61,
scooby_state_40f70f|19|1 60,0,0,0,0,0,0,0,0,0,0,0,0,0,0,60,
scooby_state_40f7cb|33|-1 0,60,0,0,0,0,0,0,0,0,0,0,0,0,0,60,
scooby_state_40f7cb|48|-1 0,59,0,0,0,0,0,0,0,0,1,0,0,0,0,60,
scooby_state_40f70f|13|1 60,0,0,0,0,0,0,0,0,0,0,0,0,0,0,60,
scooby_state_40f70f|18|1 60,0,0,0,0,0,0,0,0,0,0,0,0,0,0,60,
scooby_state_40f70f|29|1 60,0,0,0,0,0,0,0,0,0,0,0,0,0,0,60,
scooby_state_40f70f|31|1 60,0,0,0,0,0,0,0,0,0,0,0,0,0,0,60,
scooby_state_40f7cb|14|-1 0,60,0,0,0,0,0,0,0,0,0,0,0,0,0,60,
scooby_state_40f70f|15|1 60,0,0,0,0,0,0,0,0,0,0,0,0,0,0,60,
scooby_state_40f70f|52|1 59,0,0,0,0,0,0,0,0,0,0,0,0,0,0,59,
scooby_state_40f70f|55|1 59,0,0,0,0,0,0,0,0,0,0,0,0,0,0,59,
scooby_state_40f7cb|19|-1 0,59,0,0,0,0,0,0,0,0,0,0,0,0,0,59,
scooby_state_40f70f|50|1 58,0,0,0,0,0,0,0,0,0,0,0,0,0,0,58,
scooby_state_40f7cb|24|-1 0,58,0,0,0,0,0,0,0,0,0,0,0,0,0,58,
scooby_state_40f7cb|63|1 0,58,0,0,0,0,0,0,0,0,0,0,0,0,0,58,
scooby_state_40f7cb|35|-1 0,58,0,0,0,0,0,0,0,0,0,0,0,0,0,58,
scooby_state_40f70f|27|1 58,0,0,0,0,0,0,0,0,0,0,0,0,0,0,58,
scooby_state_40f7cb|22|-1 0,58,0,0,0,0,0,0,0,0,0,0,0,0,0,58,
scooby_state_40f7cb|4|-1 0,58,0,0,0,0,0,0,0,0,0,0,0,0,0,58,
scooby_state_40f7cb|41|-1 0,57,0,0,0,0,0,0,0,0,0,0,0,0,0,57,
scooby_state_40f7cb|32|-1 0,57,0,0,0,0,0,0,0,0,0,0,0,0,0,57,
scooby_state_40f70f|21|1 57,0,0,0,0,0,0,0,0,0,0,0,0,0,0,57,
scooby_state_40f7cb|36|-1 2,55,0,0,0,0,0,0,0,0,0,0,0,0,0,57,
scooby_state_40f70f|37|1 57,0,0,0,0,0,0,0,0,0,0,0,0,0,0,57,
scooby_state_40f70f|6|1 56,0,0,0,0,0,0,0,0,0,0,0,0,0,0,56,
scooby_state_40f7cb|53|-1 0,56,0,0,0,0,0,0,0,0,0,0,0,0,0,56,
scooby_state_40f7cb|5|-1 0,56,0,0,0,0,0,0,0,0,0,0,0,0,0,56,
scooby_state_40f7cb|16|-1 1,55,0,0,0,0,0,0,0,0,0,0,0,0,0,56,
scooby_state_40f7cb|42|-1 0,55,0,0,0,0,0,0,0,0,0,1,0,0,0,56,
scooby_state_40f7cb|21|-1 0,56,0,0,0,0,0,0,0,0,0,0,0,0,0,56,
scooby_state_40f70f|17|1 56,0,0,0,0,0,0,0,0,0,0,0,0,0,0,56,
scooby_state_40f70f|62|1 55,0,0,0,0,0,1,0,0,0,0,0,0,0,0,56,
scooby_state_40f70f|42|1 56,0,0,0,0,0,0,0,0,0,0,0,0,0,0,56,
scooby_state_40f70f|3|1 55,0,0,0,0,0,0,0,0,0,0,0,0,0,0,55,
scooby_state_40f7cb|1|-1 0,55,0,0,0,0,0,0,0,0,0,0,0,0,0,55,
scooby_state_40f70f|23|1 55,0,0,0,0,0,0,0,0,0,0,0,0,0,0,55,
scooby_state_40f7cb|47|-1 0,55,0,0,0,0,0,0,0,0,0,0,0,0,0,55,
scooby_state_40f70f|4|1 55,0,0,0,0,0,0,0,0,0,0,0,0,0,0,55,
scooby_state_40f7cb|57|-1 0,55,0,0,0,0,0,0,0,0,0,0,0,0,0,55,
scooby_state_40f70f|54|1 55,0,0,0,0,0,0,0,0,0,0,0,0,0,0,55,
scooby_state_40f7cb|23|-1 0,55,0,0,0,0,0,0,0,0,0,0,0,0,0,55,
scooby_state_40f7cb|40|-1 0,55,0,0,0,0,0,0,0,0,0,0,0,0,0,55,
scooby_state_40f7cb|17|-1 0,54,0,0,0,0,0,0,0,0,0,1,0,0,0,55,
scooby_state_40f7cb|49|-1 0,55,0,0,0,0,0,0,0,0,0,0,0,0,0,55,
scooby_state_40f7cb|58|-1 0,53,0,1,0,0,0,0,0,0,0,0,0,0,0,54,
scooby_state_40f70f|20|1 54,0,0,0,0,0,0,0,0,0,0,0,0,0,0,54,
scooby_state_40f70f|60|1 54,0,0,0,0,0,0,0,0,0,0,0,0,0,0,54,
scooby_state_40f7cb|52|-1 0,53,0,0,0,0,0,0,0,0,0,0,0,0,0,53,
scooby_state_40f7cb|2|-1 0,53,0,0,0,0,0,0,0,0,0,0,0,0,0,53,
scooby_state_40f7cb|18|-1 0,53,0,0,0,0,0,0,0,0,0,0,0,0,0,53,
scooby_state_40f7c0|17|0 53,0,0,0,0,0,0,0,0,0,0,0,0,0,0,53,
scooby_state_40f7cb|30|-1 0,53,0,0,0,0,0,0,0,0,0,0,0,0,0,53,
scooby_state_40f7cb|44|-1 0,53,0,0,0,0,0,0,0,0,0,0,0,0,0,53,
scooby_state_40f70f|11|1 53,0,0,0,0,0,0,0,0,0,0,0,0,0,0,53,
scooby_state_40f70f|8|1 53,0,0,0,0,0,0,0,0,0,0,0,0,0,0,53,
scooby_state_40f7cb|50|-1 0,53,0,0,0,0,0,0,0,0,0,0,0,0,0,53,
scooby_state_40f7cb|54|-1 0,53,0,0,0,0,0,0,0,0,0,0,0,0,0,53,
scooby_state_40f7cb|13|-1 0,53,0,0,0,0,0,0,0,0,0,0,0,0,0,53,
scooby_state_40f7cb|28|-1 0,52,0,0,0,0,0,0,0,0,0,0,0,0,0,52,
scooby_state_40f7cb|60|-1 0,52,0,0,0,0,0,0,0,0,0,0,0,0,0,52,
scooby_state_40f7cb|37|-1 0,52,0,0,0,0,0,0,0,0,0,0,0,0,0,52,
scooby_state_40f7cb|43|-1 0,52,0,0,0,0,0,0,0,0,0,0,0,0,0,52,
scooby_state_40f70f|0|0 52,0,0,0,0,0,0,0,0,0,0,0,0,0,0,52,
scooby_state_40f70f|45|1 52,0,0,0,0,0,0,0,0,0,0,0,0,0,0,52,
scooby_state_40f7cb|51|-1 0,51,0,0,0,0,0,0,0,0,0,0,0,0,0,51,
scooby_state_40f7cb|6|-1 0,51,0,0,0,0,0,0,0,0,0,0,0,0,0,51,
scooby_state_40f70f|47|1 50,0,1,0,0,0,0,0,0,0,0,0,0,0,0,51,
scooby_state_40f7c0|12|0 51,0,0,0,0,0,0,0,0,0,0,0,0,0,0,51,
scooby_state_40f7cb|31|-1 0,51,0,0,0,0,0,0,0,0,0,0,0,0,0,51,
scooby_state_40f7cb|27|-1 0,51,0,0,0,0,0,0,0,0,0,0,0,0,0,51,
scooby_state_40f7cb|34|-1 0,50,0,0,0,0,0,0,0,0,0,0,0,1,0,51,
scooby_state_40f7cb|39|-1 0,51,0,0,0,0,0,0,0,0,0,0,0,0,0,51,
scooby_state_40f70f|30|1 50,0,0,0,0,0,0,0,0,0,0,0,0,1,0,51,
scooby_state_40f7cb|9|-1 0,50,0,0,0,0,0,0,0,0,0,0,0,0,0,50,
scooby_state_40f70f|38|1 50,0,0,0,0,0,0,0,0,0,0,0,0,0,0,50,
scooby_state_40f7cb|12|-1 0,50,0,0,0,0,0,0,0,0,0,0,0,0,0,50,
scooby_state_40f7cb|10|-1 1,49,0,0,0,0,0,0,0,0,0,0,0,0,0,50,
scooby_state_40f7c0|48|0 50,0,0,0,0,0,0,0,0,0,0,0,0,0,0,50,
scooby_state_40f7cb|56|-1 0,49,0,0,0,0,0,0,0,0,0,0,0,0,0,49,
scooby_state_40f7c0|47|0 49,0,0,0,0,0,0,0,0,0,0,0,0,0,0,49,
scooby_state_40f7c0|6|0 49,0,0,0,0,0,0,0,0,0,0,0,0,0,0,49,
scooby_state_40f7c0|39|0 49,0,0,0,0,0,0,0,0,0,0,0,0,0,0,49,
scooby_state_40f7cb|11|-1 0,49,0,0,0,0,0,0,0,0,0,0,0,0,0,49,
scooby_state_40f70f|33|1 49,0,0,0,0,0,0,0,0,0,0,0,0,0,0,49,
scooby_state_40f7cb|3|-1 0,48,0,0,0,0,0,0,0,0,0,0,0,0,0,48,
scooby_state_40f70f|56|1 48,0,0,0,0,0,0,0,0,0,0,0,0,0,0,48,
scooby_state_40f7c0|27|0 47,0,0,0,0,0,0,0,0,0,0,0,0,0,0,47,
scooby_state_40f70f|36|1 47,0,0,0,0,0,0,0,0,0,0,0,0,0,0,47,
scooby_state_40f70f|28|1 47,0,0,0,0,0,0,0,0,0,0,0,0,0,0,47,
scooby_state_40f7c0|11|0 47,0,0,0,0,0,0,0,0,0,0,0,0,0,0,47,
scooby_state_40f7c0|32|0 47,0,0,0,0,0,0,0,0,0,0,0,0,0,0,47,
scooby_state_40f70f|57|1 47,0,0,0,0,0,0,0,0,0,0,0,0,0,0,47,
scooby_state_40f7c0|60|0 46,0,0,0,0,0,0,0,0,0,0,0,0,0,0,46,
scooby_state_40f7cb|29|-1 0,46,0,0,0,0,0,0,0,0,0,0,0,0,0,46,
scooby_state_40f7c0|4|0 45,0,0,0,0,0,0,0,0,0,0,0,0,0,0,45,
scooby_state_40f7c0|5|0 44,0,0,0,0,0,0,0,0,0,0,0,0,0,0,44,
scooby_state_40f7c0|8|0 44,0,0,0,0,0,0,0,0,0,0,0,0,0,0,44,
scooby_state_40f7cb|45|-1 0,44,0,0,0,0,0,0,0,0,0,0,0,0,0,44,
scooby_state_40f7c0|13|0 43,0,0,0,0,0,0,0,0,0,0,0,0,0,0,43,
scooby_state_40f7c0|36|0 43,0,0,0,0,0,0,0,0,0,0,0,0,0,0,43,
scooby_state_40f7cb|7|-1 0,43,0,0,0,0,0,0,0,0,0,0,0,0,0,43,
scooby_state_40f70f|9|1 43,0,0,0,0,0,0,0,0,0,0,0,0,0,0,43,
scooby_state_40f7c0|62|0 42,0,0,0,0,0,0,0,0,0,0,0,0,0,0,42,
scooby_state_40f7cb|8|-1 0,42,0,0,0,0,0,0,0,0,0,0,0,0,0,42,
scooby_state_40f7cb|62|-1 0,42,0,0,0,0,0,0,0,0,0,0,0,0,0,42,
scooby_state_a4c443|0|0 10,3,2,4,1,2,2,0,2,3,3,2,1,2,5,42,
scooby_state_40f7c0|49|0 41,0,0,0,0,0,0,0,0,0,0,0,0,0,0,41,
scooby_state_40f7c0|21|0 41,0,0,0,0,0,0,0,0,0,0,0,0,0,0,41,
scooby_state_40f7c0|50|0 41,0,0,0,0,0,0,0,0,0,0,0,0,0,0,41,
scooby_state_40f70f|25|1 41,0,0,0,0,0,0,0,0,0,0,0,0,0,0,41,
scooby_state_40f7c0|10|0 40,0,0,0,0,0,0,0,0,0,0,0,0,0,0,40,
scooby_state_40f7c0|25|0 40,0,0,0,0,0,0,0,0,0,0,0,0,0,0,40,
scooby_state_40f7cb|46|-1 0,40,0,0,0,0,0,0,0,0,0,0,0,0,0,40,
scooby_state_40f7c0|61|0 39,0,0,0,0,0,0,0,0,0,0,0,0,0,0,39,
scooby_state_40f7c0|15|0 39,0,0,0,0,0,0,0,0,0,0,0,0,0,0,39,
scooby_state_40f7c0|30|0 39,0,0,0,0,0,0,0,0,0,0,0,0,0,0,39,
scooby_state_40f7c0|34|0 39,0,0,0,0,0,0,0,0,0,0,0,0,0,0,39,
scooby_state_40f7c0|19|0 39,0,0,0,0,0,0,0,0,0,0,0,0,0,0,39,
scooby_state_40f7c0|54|0 39,0,0,0,0,0,0,0,0,0,0,0,0,0,0,39,
scooby_state_40f7c0|16|0 38,0,0,0,0,0,0,0,0,0,0,0,0,0,0,38,
scooby_state_40f7c0|26|0 38,0,0,0,0,0,0,0,0,0,0,0,0,0,0,38,
scooby_state_40f7c0|31|0 38,0,0,0,0,0,0,0,0,0,0,0,0,0,0,38,
scooby_state_40f7c0|57|0 38,0,0,0,0,0,0,0,0,0,0,0,0,0,0,38,
scooby_state_40f7c0|37|0 38,0,0,0,0,0,0,0,0,0,0,0,0,0,0,38,
scooby_state_40f7c0|2|0 38,0,0,0,0,0,0,0,0,0,0,0,0,0,0,38,
scooby_state_40f7c0|23|0 37,0,0,0,0,0,0,0,0,0,0,0,0,0,0,37,
scooby_state_40f7c0|7|0 37,0,0,0,0,0,0,0,0,0,0,0,0,0,0,37,
scooby_state_40f7c0|53|0 37,0,0,0,0,0,0,0,0,0,0,0,0,0,0,37,
scooby_state_40f7c0|33|0 37,0,0,0,0,0,0,0,0,0,0,0,0,0,0,37,
scooby_state_40f7c0|35|0 37,0,0,0,0,0,0,0,0,0,0,0,0,0,0,37,
scooby_state_40f7c0|22|0 37,0,0,0,0,0,0,0,0,0,0,0,0,0,0,37,
scooby_state_40f7c0|59|0 36,0,0,0,0,0,0,0,0,0,0,0,0,0,0,36,
scooby_state_40f7c0|38|0 36,0,0,0,0,0,0,0,0,0,0,0,0,0,0,36,
scooby_state_40f7c0|3|0 36,0,0,0,0,0,0,0,0,0,0,0,0,0,0,36,
scooby_state_40f7c0|43|0 36,0,0,0,0,0,0,0,0,0,0,0,0,0,0,36,
scooby_state_40f7c0|46|0 35,0,0,0,0,0,0,0,0,0,0,0,0,0,0,35,
scooby_state_40f7c0|18|0 35,0,0,0,0,0,0,0,0,0,0,0,0,0,0,35,
scooby_state_40f7c0|20|0 35,0,0,0,0,0,0,0,0,0,0,0,0,0,0,35,
scooby_state_a4c443|62|0 7,2,1,4,3,4,2,1,1,1,3,1,1,2,2,35,
scooby_state_40f7c0|29|0 35,0,0,0,0,0,0,0,0,0,0,0,0,0,0,35,
scooby_state_40f7c0|9|0 35,0,0,0,0,0,0,0,0,0,0,0,0,0,0,35,
scooby_state_40f7c0|63|0 34,0,0,0,0,0,0,0,0,0,0,0,0,0,0,34,
scooby_state_40f7cb|61|-1 0,34,0,0,0,0,0,0,0,0,0,0,0,0,0,34,
scooby_state_a4c443|12|0 18,1,0,1,0,1,1,1,0,2,0,3,1,2,3,34,
scooby_state_40f7c0|28|0 34,0,0,0,0,0,0,0,0,0,0,0,0,0,0,34,
scooby_state_a4c443|1|0 9,3,2,1,2,3,1,3,0,0,0,0,4,3,2,33,
scooby_state_40f7c0|41|0 33,0,0,0,0,0,0,0,0,0,0,0,0,0,0,33,
scooby_state_40f7c0|45|0 32,0,0,0,0,0,0,0,0,0,0,0,0,0,0,32,
scooby_state_40f7c0|52|0 32,0,0,0,0,0,0,0,0,0,0,0,0,0,0,32,
scooby_state_40f7c0|51|0 32,0,0,0,0,0,0,0,0,0,0,0,0,0,0,32,
scooby_state_40f7c0|42|0 32,0,0,0,0,0,0,0,0,0,0,0,0,0,0,32,
scooby_state_40f7c0|14|0 31,0,0,0,0,0,0,0,0,0,0,0,0,0,0,31,
scooby_state_40f7c0|44|0 30,0,0,0,0,0,0,0,0,0,0,0,0,0,0,30,
scooby_state_40f89a|47|0 30,0,0,0,0,0,0,0,0,0,0,0,0,0,0,30,
scooby_state_40f89a|48|0 30,0,0,0,0,0,0,0,0,0,0,0,0,0,0,30,
scooby_state_40f7c0|58|0 30,0,0,0,0,0,0,0,0,0,0,0,0,0,0,30,
scooby_state_40f7c0|40|0 29,0,0,0,0,0,0,0,0,0,0,0,0,0,0,29,
scooby_state_40f89a|31|0 27,0,0,0,1,0,0,0,0,0,0,0,0,0,0,28,
scooby_state_40f89a|59|0 28,0,0,0,0,0,0,0,0,0,0,0,0,0,0,28,
scooby_state_40f7c0|56|0 28,0,0,0,0,0,0,0,0,0,0,0,0,0,0,28,
scooby_state_40f7c0|24|0 27,0,0,0,0,0,0,0,0,0,0,0,0,0,0,27,
scooby_state_40f89a|51|0 27,0,0,0,0,0,0,0,0,0,0,0,0,0,0,27,
scooby_state_40f89a|61|0 27,0,0,0,0,0,0,0,0,0,0,0,0,0,0,27,
scooby_state_40f89a|39|0 27,0,0,0,0,0,0,0,0,0,0,0,0,0,0,27,
scooby_state_40f7c0|0|-63 27,0,0,0,0,0,0,0,0,0,0,0,0,0,0,27,
scooby_state_40f89a|34|0 26,0,0,0,0,0,0,0,0,0,0,0,0,0,0,26,
scooby_state_40f8cc|23|-40 0,0,1,0,0,0,1,0,0,0,0,1,0,0,23,26,
scooby_state_40f89a|32|0 26,0,0,0,0,0,0,0,0,0,0,0,0,0,0,26,
scooby_state_a5266d|19|0 0,0,2,1,0,0,2,1,0,2,2,11,0,0,3,24,
scooby_state_40f89a|55|0 24,0,0,0,0,0,0,0,0,0,0,0,0,0,0,24,
scooby_state_a5266d|14|0 3,0,2,0,0,1,1,1,0,1,1,11,1,0,2,24,
scooby_state_40f89a|57|0 24,0,0,0,0,0,0,0,0,0,0,0,0,0,0,24,
scooby_state_40f7c0|55|0 24,0,0,0,0,0,0,0,0,0,0,0,0,0,0,24,
scooby_state_40f89a|50|0 24,0,0,0,0,0,0,0,0,0,0,0,0,0,0,24,
scooby_state_a4c443|59|0 5,2,1,2,2,1,2,1,0,0,2,2,0,2,2,24,
scooby_state_40f89a|58|0 24,0,0,0,0,0,0,0,0,0,0,0,0,0,0,24,
scooby_state_40f89a|43|0 23,0,0,0,0,0,0,0,0,0,0,0,0,0,0,23,
scooby_state_40f89a|52|0 23,0,0,0,0,0,0,0,0,0,0,0,0,0,0,23,
scooby_state_40f89a|38|0 23,0,0,0,0,0,0,0,0,0,0,0,0,0,0,23,
scooby_state_40f89a|26|0 23,0,0,0,0,0,0,0,0,0,0,0,0,0,0,23,
scooby_state_40f8cc|4|-59 5,2,2,1,1,1,1,1,1,1,1,0,1,1,3,22,
scooby_state_a4c443|5|0 4,1,1,0,0,1,3,2,0,0,1,2,1,2,4,22,
scooby_state_40f89a|41|0 22,0,0,0,0,0,0,0,0,0,0,0,0,0,0,22,
scooby_state_40f89a|22|0 22,0,0,0,0,0,0,0,0,0,0,0,0,0,0,22,
scooby_state_40f89a|56|0 22,0,0,0,0,0,0,0,0,0,0,0,0,0,0,22,
scooby_state_a4c443|63|0 11,0,1,0,0,0,1,2,2,2,0,1,2,0,0,22,
scooby_state_40f89a|8|0 22,0,0,0,0,0,0,0,0,0,0,0,0,0,0,22,
scooby_state_a4c443|11|0 14,0,0,0,1,1,0,0,1,1,1,1,0,0,2,22,
scooby_state_40f89a|13|0 22,0,0,0,0,0,0,0,0,0,0,0,0,0,0,22,
scooby_state_40f89a|46|0 22,0,0,0,0,0,0,0,0,0,0,0,0,0,0,22,
scooby_state_40f8cc|15|-48 0,21,0,0,0,0,0,0,0,0,0,0,0,0,0,21,
scooby_state_a4c443|10|0 3,2,1,1,2,3,2,1,2,0,0,1,0,1,2,21,
scooby_state_40f89a|15|0 21,0,0,0,0,0,0,0,0,0,0,0,0,0,0,21,
scooby_state_a4c443|58|0 7,0,2,1,0,0,2,1,3,1,0,0,2,0,2,21,
scooby_state_40f89a|5|0 21,0,0,0,0,0,0,0,0,0,0,0,0,0,0,21,
scooby_state_40f8cc|39|-24 0,1,3,1,2,2,1,1,2,1,1,1,1,2,2,21,
scooby_state_a4c443|17|0 8,1,1,1,1,2,1,0,1,0,1,1,1,0,2,21,
scooby_state_40f89a|49|0 21,0,0,0,0,0,0,0,0,0,0,0,0,0,0,21,
scooby_state_40f7cb|3|1 0,21,0,0,0,0,0,0,0,0,0,0,0,0,0,21,
scooby_state_40f8cc|60|-3 0,0,2,1,1,1,1,0,1,0,2,1,1,2,8,21,
scooby_state_a52672|0|0 0,0,2,1,0,1,5,1,2,0,0,1,1,4,3,21,
scooby_state_a4c443|2|0 3,3,0,0,1,0,1,2,1,4,1,1,1,2,1,21,
scooby_state_40f89a|4|0 20,0,0,0,0,0,0,0,0,0,0,0,0,0,0,20,
scooby_state_a52672|4|0 2,0,1,2,1,1,3,0,2,1,1,1,0,1,4,20,
scooby_state_40f89a|28|0 20,0,0,0,0,0,0,0,0,0,0,0,0,0,0,20,
scooby_state_40f89a|18|0 20,0,0,0,0,0,0,0,0,0,0,0,0,0,0,20,
scooby_state_40f8cc|49|-14 19,1,0,0,0,0,0,0,0,0,0,0,0,0,0,20,
scooby_state_40f8cc|1|-62 7,0,1,1,1,0,1,1,3,2,0,0,0,2,1,20,
scooby_state_40f8cc|27|-36 0,1,3,1,0,1,1,1,2,3,2,1,1,2,1,20,
scooby_state_a52672|2|0 1,1,3,0,2,0,1,3,2,0,0,4,2,0,1,20,
scooby_state_40f8cc|50|-13 20,0,0,0,0,0,0,0,0,0,0,0,0,0,0,20,
scooby_state_40f8cc|48|-15 0,20,0,0,0,0,0,0,0,0,0,0,0,0,0,20,
scooby_state_40f89a|54|0 20,0,0,0,0,0,0,0,0,0,0,0,0,0,0,20,
scooby_state_40f89a|53|0 20,0,0,0,0,0,0,0,0,0,0,0,0,0,0,20,
scooby_state_40f89a|44|0 20,0,0,0,0,0,0,0,0,0,0,0,0,0,0,20,
scooby_state_40f89a|33|0 20,0,0,0,0,0,0,0,0,0,0,0,0,0,0,20,
scooby_state_40f7cb|38|1 0,20,0,0,0,0,0,0,0,0,0,0,0,0,0,20,
scooby_state_40f89a|35|0 19,0,0,0,0,0,0,0,0,0,0,0,0,0,0,19,
scooby_state_40f89a|27|0 19,0,0,0,0,0,0,0,0,0,0,0,0,0,0,19,
scooby_state_40f7cb|59|1 0,19,0,0,0,0,0,0,0,0,0,0,0,0,0,19,
scooby_state_40f89a|2|0 19,0,0,0,0,0,0,0,0,0,0,0,0,0,0,19,
scooby_state_40f89a|19|0 19,0,0,0,0,0,0,0,0,0,0,0,0,0,0,19,
scooby_state_40f8cc|32|-31 2,1,2,1,1,1,1,1,1,2,1,1,1,1,2,19,
scooby_state_40f7cb|2|1 0,19,0,0,0,0,0,0,0,0,0,0,0,0,0,19,
scooby_state_a5266d|20|0 1,2,0,1,3,0,0,0,1,0,0,9,1,1,0,19,
scooby_state_40f8cc|41|-22 1,2,0,1,2,1,2,1,0,1,1,2,2,1,2,19,
scooby_state_40f89a|12|0 19,0,0,0,0,0,0,0,0,0,0,0,0,0,0,19,
scooby_state_40f8cc|34|-29 15,0,0,0,0,0,1,1,0,1,0,0,1,0,0,19,
scooby_state_40f8cc|36|-27 10,1,1,0,1,1,1,0,1,1,1,1,0,0,0,19,
scooby_state_40f8cc|19|-44 3,1,1,1,1,1,1,1,1,1,1,1,1,1,2,18,
scooby_state_40f89a|24|0 18,0,0,0,0,0,0,0,0,0,0,0,0,0,0,18,
scooby_state_a52672|12|0 0,0,0,3,1,1,1,2,0,2,0,2,1,2,3,18,
scooby_state_40f8cc|12|-51 0,1,0,0,0,1,0,0,0,0,0,16,0,0,0,18,
scooby_state_40f8cc|61|-2 0,0,0,0,0,0,1,0,0,0,0,17,0,0,0,18,
scooby_state_40f7cb|42|1 0,18,0,0,0,0,0,0,0,0,0,0,0,0,0,18,
scooby_state_40f8cc|53|-10 0,3,0,2,1,1,1,1,1,1,1,1,2,2,1,18,
scooby_state_a52672|19|0 2,0,2,0,2,1,1,0,2,1,0,2,0,1,4,18,
scooby_state_40f8cc|21|-42 11,0,1,1,1,1,0,1,0,1,1,0,0,0,0,18,
scooby_state_40f7cb|14|1 0,18,0,0,0,0,0,0,0,0,0,0,0,0,0,18,
scooby_state_a5266d|0|0 1,1,0,0,1,1,1,2,0,2,1,7,0,0,1,18,
scooby_state_40f89a|16|0 17,0,0,0,0,0,0,0,0,0,0,0,0,0,0,17,
scooby_state_40f89a|23|0 17,0,0,0,0,0,0,0,0,0,0,0,0,0,0,17,
scooby_state_40f8cc|30|-33 2,1,2,1,1,1,1,1,1,1,1,1,1,0,2,17,
scooby_state_40f89a|60|0 17,0,0,0,0,0,0,0,0,0,0,0,0,0,0,17,
scooby_state_a5266d|53|0 0,1,1,1,0,1,0,0,1,0,0,11,1,0,0,17,
scooby_state_40f8cc|2|-61 17,0,0,0,0,0,0,0,0,0,0,0,0,0,0,17,
scooby_state_40f7cb|21|1 1,16,0,0,0,0,0,0,0,0,0,0,0,0,0,17,
scooby_state_40f8cc|31|-32 17,0,0,0,0,0,0,0,0,0,0,0,0,0,0,17,
scooby_state_40f8cc|8|-55 1,1,1,1,2,2,1,1,0,1,1,0,1,2,2,17,
scooby_state_40f89a|11|0 17,0,0,0,0,0,0,0,0,0,0,0,0,0,0,17,
scooby_state_40f89a|37|0 17,0,0,0,0,0,0,0,0,0,0,0,0,0,0,17,
scooby_state_40f89a|1|0 17,0,0,0,0,0,0,0,0,0,0,0,0,0,0,17,
scooby_state_40f89a|21|0 17,0,0,0,0,0,0,0,0,0,0,0,0,0,0,17,
scooby_state_40f8cc|38|-25 0,1,2,1,2,1,1,1,1,1,1,1,2,1,1,17,
scooby_state_40f89a|62|0 17,0,0,0,0,0,0,0,0,0,0,0,0,0,0,17,
scooby_state_40f8cc|45|-18 1,1,7,1,1,1,0,0,0,1,1,0,0,1,2,17,
scooby_state_40f8cc|51|-12 17,0,0,0,0,0,0,0,0,0,0,0,0,0,0,17,
scooby_state_40f8cc|43|-20 0,3,5,0,1,1,1,1,1,1,1,0,1,0,1,17,
scooby_state_40f89a|0|0 16,0,0,0,0,0,0,0,0,0,0,0,0,0,0,16,
scooby_state_40f8cc|40|-23 0,0,0,0,0,0,0,0,0,0,0,16,0,0,0,16,
scooby_state_40f89a|29|0 16,0,0,0,0,0,0,0,0,0,0,0,0,0,0,16,
scooby_state_40f8cc|35|-28 1,15,0,0,0,0,0,0,0,0,0,0,0,0,0,16,
scooby_state_a5266d|42|0 0,1,3,1,1,1,0,0,0,1,0,4,0,1,3,16,
scooby_state_40f8cc|63|0 2,3,0,1,2,1,0,1,1,2,1,2,0,0,0,16,
scooby_state_40f8cc|33|-30 0,0,16,0,0,0,0,0,0,0,0,0,0,0,0,16,
scooby_state_a5266d|16|0 0,1,0,2,2,1,0,1,0,0,1,6,1,0,1,16,
scooby_state_40f8cc|24|-39 9,0,1,1,0,0,0,1,0,1,0,1,1,0,1,16,
scooby_state_40f8cc|16|-47 16,0,0,0,0,0,0,0,0,0,0,0,0,0,0,16,
scooby_state_a5266d|15|0 1,2,0,0,1,1,1,1,1,0,0,8,0,0,0,16,
scooby_state_40f7b9|45|1 0,15,0,0,0,0,0,0,0,1,0,0,0,0,0,16,
scooby_state_40f89a|63|0 16,0,0,0,0,0,0,0,0,0,0,0,0,0,0,16,
scooby_state_40f7b9|43|0 0,16,0,0,0,0,0,0,0,0,0,0,0,0,0,16,
scooby_state_40f7cb|0|0 0,16,0,0,0,0,0,0,0,0,0,0,0,0,0,16,
scooby_state_40f7cb|5|1 0,16,0,0,0,0,0,0,0,0,0,0,0,0,0,16,
scooby_state_a52672|1|0 0,2,1,1,0,1,0,1,0,2,0,3,2,0,3,16,
scooby_state_40f8cc|0|-63 3,1,0,1,1,1,1,2,1,0,0,2,1,1,1,16,
scooby_state_40f8cc|6|-57 0,0,0,0,0,0,0,0,0,0,0,16,0,0,0,16,
scooby_state_a5266d|13|0 0,0,1,0,0,1,0,0,1,1,0,11,1,0,0,16,
scooby_state_40f7b0|1|0 0,0,16,0,0,0,0,0,0,0,0,0,0,0,0,16,
scooby_state_a4c443|18|0 4,2,2,0,0,0,1,3,2,0,0,0,1,0,1,16,
scooby_state_a5266d|18|0 1,2,0,0,0,0,0,1,0,0,1,10,0,1,0,16,
scooby_state_a5266d|4|0 2,2,1,0,1,0,1,0,1,1,0,6,0,0,1,16,
scooby_state_40f89a|30|0 16,0,0,0,0,0,0,0,0,0,0,0,0,0,0,16,
scooby_state_40f89a|25|0 16,0,0,0,0,0,0,0,0,0,0,0,0,0,0,16,
scooby_state_40f8cc|9|-54 0,1,1,1,0,1,0,1,3,2,2,2,0,1,1,16,
scooby_state_40f89a|42|0 16,0,0,0,0,0,0,0,0,0,0,0,0,0,0,16,
scooby_state_a4c443|8|0 2,1,2,2,1,1,2,1,1,2,1,0,0,0,0,16,
scooby_state_40f89a|36|0 15,0,0,0,0,0,0,0,0,0,0,0,0,0,0,15,
scooby_state_40f89a|6|0 15,0,0,0,0,0,0,0,0,0,0,0,0,0,0,15,
scooby_state_40f8cc|37|-26 13,0,0,0,0,0,1,0,0,0,1,0,0,0,0,15,
scooby_state_40f8cc|47|-16 15,0,0,0,0,0,0,0,0,0,0,0,0,0,0,15,
scooby_state_40f8cc|17|-46 15,0,0,0,0,0,0,0,0,0,0,0,0,0,0,15,
scooby_state_40f7cb|58|1 0,15,0,0,0,0,0,0,0,0,0,0,0,0,0,15,
scooby_state_40f7cb|39|1 0,15,0,0,0,0,0,0,0,0,0,0,0,0,0,15,
scooby_state_a4c443|22|0 2,1,2,2,2,1,0,0,1,1,1,0,0,1,1,15,
scooby_state_a5266d|41|0 0,0,1,0,1,0,0,1,1,0,2,8,0,1,0,15,
scooby_state_40f7cb|4|1 0,15,0,0,0,0,0,0,0,0,0,0,0,0,0,15,
scooby_state_40f8cc|5|-58 14,0,0,1,0,0,0,0,0,0,0,0,0,0,0,15,
scooby_state_40f7cb|44|1 0,15,0,0,0,0,0,0,0,0,0,0,0,0,0,15,
scooby_state_40f8cc|54|-9 0,0,0,0,0,0,0,0,0,0,0,15,0,0,0,15,
scooby_state_40f8cc|13|-50 0,0,0,1,1,1,2,1,2,0,1,1,2,1,2,15,
scooby_state_40f89a|10|0 15,0,0,0,0,0,0,0,0,0,0,0,0,0,0,15,
scooby_state_40f7cb|11|1 0,15,0,0,0,0,0,0,0,0,0,0,0,0,0,15,
scooby_state_40f8cc|29|-34 0,15,0,0,0,0,0,0,0,0,0,0,0,0,0,15,
scooby_state_40f89a|45|0 15,0,0,0,0,0,0,0,0,0,0,0,0,0,0,15,
scooby_state_40f8cc|28|-35 2,0,13,0,0,0,0,0,0,0,0,0,0,0,0,15,
scooby_state_a52672|27|0 1,1,1,1,2,0,0,2,2,1,1,0,0,1,1,14,
scooby_state_a5266d|5|0 0,0,2,1,0,1,0,0,0,0,0,7,1,0,2,14,
scooby_state_40f7cb|24|1 0,14,0,0,0,0,0,0,0,0,0,0,0,0,0,14,
scooby_state_a5266d|2|0 2,0,0,0,0,0,0,0,0,1,0,7,1,0,3,14,
scooby_state_40f7cb|56|1 0,14,0,0,0,0,0,0,0,0,0,0,0,0,0,14,
scooby_state_40f7cb|20|1 0,14,0,0,0,0,0,0,0,0,0,0,0,0,0,14,
scooby_state_40f8cc|26|-37 0,0,1,1,2,0,2,1,1,1,1,1,1,0,2,14,
scooby_state_40f8cc|58|-5 1,1,1,0,0,1,0,1,1,1,1,1,1,2,2,14,
scooby_state_40f8cc|59|-4 0,14,0,0,0,0,0,0,0,0,0,0,0,0,0,14,
scooby_state_a5266d|6|0 1,0,1,0,0,1,0,1,0,0,1,5,1,2,1,14,
scooby_state_a5266d|40|0 0,0,1,1,1,0,1,1,0,1,0,6,1,0,1,14,
scooby_state_40f8cc|62|-1 14,0,0,0,0,0,0,0,0,0,0,0,0,0,0,14,
scooby_state_40f7b9|45|0 1,13,0,0,0,0,0,0,0,0,0,0,0,0,0,14,
scooby_state_40f89a|14|0 14,0,0,0,0,0,0,0,0,0,0,0,0,0,0,14,
scooby_state_40f7cb|62|1 0,14,0,0,0,0,0,0,0,0,0,0,0,0,0,14,
scooby_state_40f8cc|3|-60 5,0,1,1,0,1,1,1,0,0,1,1,1,1,0,14,
scooby_state_40f8cc|57|-6 14,0,0,0,0,0,0,0,0,0,0,0,0,0,0,14,
scooby_state_40f7cb|53|1 0,14,0,0,0,0,0,0,0,0,0,0,0,0,0,14,
scooby_state_40f7cb|27|1 0,14,0,0,0,0,0,0,0,0,0,0,0,0,0,14,
scooby_state_40f8cc|10|-53 9,0,0,0,0,1,1,0,1,0,0,1,0,0,1,14,
scooby_state_40f89a|40|0 14,0,0,0,0,0,0,0,0,0,0,0,0,0,0,14,
scooby_state_40f89a|7|0 14,0,0,0,0,0,0,0,0,0,0,0,0,0,0,14,
scooby_state_a52672|9|0 2,0,3,0,0,1,1,1,0,1,1,0,1,1,2,14,
scooby_state_40f8cc|14|-49 0,1,2,0,1,1,1,1,1,0,1,0,1,1,3,14,
scooby_state_40f8cc|20|-43 0,1,2,1,0,0,1,1,1,2,1,2,0,0,1,13,
scooby_state_40f89a|9|0 13,0,0,0,0,0,0,0,0,0,0,0,0,0,0,13,
scooby_state_40f7b0|4|0 0,0,13,0,0,0,0,0,0,0,0,0,0,0,0,13,
scooby_state_40f89a|17|0 13,0,0,0,0,0,0,0,0,0,0,0,0,0,0,13,
scooby_state_a5266d|27|0 0,0,2,1,0,0,0,0,1,0,0,7,1,1,0,13,
scooby_state_a5266d|52|0 0,0,0,0,0,2,0,0,0,0,1,8,1,0,1,13,
scooby_state_a4c443|61|0 7,1,0,0,2,0,0,0,0,0,0,0,1,0,2,13,
scooby_state_40f7cb|33|1 0,13,0,0,0,0,0,0,0,0,0,0,0,0,0,13,
scooby_state_40f7cb|23|1 0,13,0,0,0,0,0,0,0,0,0,0,0,0,0,13,
scooby_state_a5266d|61|0 0,0,1,0,1,0,2,0,0,0,1,6,2,0,0,13,
scooby_state_40f8cc|11|-52 10,0,0,0,1,0,1,1,0,0,0,0,0,0,0,13,
scooby_state_a4c443|6|0 4,0,0,2,0,1,1,0,0,0,0,2,1,1,1,13,
scooby_state_a4c443|57|0 5,0,0,0,1,0,0,0,0,1,2,2,1,0,1,13,
scooby_state_40f8cc|44|-19 0,1,0,2,1,1,1,1,0,1,0,1,1,1,2,13,
scooby_state_40f8cc|22|-41 3,0,1,2,1,0,1,0,1,1,0,1,0,0,2,13,
scooby_state_40f7cb|45|1 0,13,0,0,0,0,0,0,0,0,0,0,0,0,0,13,
scooby_state_a4c443|14|0 2,0,0,1,1,1,2,2,2,1,0,1,0,0,0,13,
scooby_state_a4c443|23|0 1,0,1,0,0,4,1,2,0,0,0,0,1,1,2,13,
scooby_state_40f7cb|55|1 0,13,0,0,0,0,0,0,0,0,0,0,0,0,0,13,
scooby_state_40f89a|20|0 13,0,0,0,0,0,0,0,0,0,0,0,0,0,0,13,
scooby_state_40f7cb|26|1 0,12,0,0,0,0,0,0,0,0,0,0,0,0,0,12,
scooby_state_40f7cb|57|1 0,12,0,0,0,0,0,0,0,0,0,0,0,0,0,12,
scooby_state_40f7b0|2|0 0,0,12,0,0,0,0,0,0,0,0,0,0,0,0,12,
scooby_state_40f7cb|1|1 0,12,0,0,0,0,0,0,0,0,0,0,0,0,0,12,
scooby_state_a5266d|7|0 0,0,1,0,0,1,2,1,0,2,0,3,0,0,2,12,
scooby_state_40f8cc|46|-17 2,1,1,0,0,1,1,1,1,1,1,1,1,0,0,12,
scooby_state_40f8cc|42|-21 6,0,1,0,1,0,0,0,0,0,0,4,0,0,0,12,
scooby_state_40f7cb|8|1 0,12,0,0,0,0,0,0,0,0,0,0,0,0,0,12,
scooby_state_40f7cb|16|1 0,12,0,0,0,0,0,0,0,0,0,0,0,0,0,12,
scooby_state_40f8cc|25|-38 0,1,1,1,0,1,1,2,1,0,1,1,0,1,1,12,
scooby_state_40f7cb|22|1 0,12,0,0,0,0,0,0,0,0,0,0,0,0,0,12,
scooby_state_40f7cb|40|1 0,12,0,0,0,0,0,0,0,0,0,0,0,0,0,12,
scooby_state_40f7cb|37|1 0,12,0,0,0,0,0,0,0,0,0,0,0,0,0,12,
scooby_state_a5266d|17|0 0,0,0,0,0,1,1,1,0,1,0,6,0,1,1,12,
scooby_state_a4c443|33|0 5,0,0,1,0,0,1,0,1,0,1,1,0,2,0,12,
scooby_state_40f7cb|6|1 0,12,0,0,0,0,0,0,0,0,0,0,0,0,0,12,
scooby_state_a4c443|4|0 2,2,2,0,1,1,0,0,2,0,0,0,0,0,2,12,
scooby_state_40f7cb|17|1 0,12,0,0,0,0,0,0,0,0,0,0,0,0,0,12,
scooby_state_40f7cb|60|1 0,12,0,0,0,0,0,0,0,0,0,0,0,0,0,12,
scooby_state_40f7cb|9|1 0,12,0,0,0,0,0,0,0,0,0,0,0,0,0,12,
scooby_state_40f7cb|7|1 0,12,0,0,0,0,0,0,0,0,0,0,0,0,0,12,
scooby_state_a5266d|28|0 0,0,1,0,0,0,0,0,1,0,0,8,0,0,2,12,
scooby_state_40f7b0|15|0 0,0,12,0,0,0,0,0,0,0,0,0,0,0,0,12,
scooby_state_40f7b0|0|0 0,0,12,0,0,0,0,0,0,0,0,0,0,0,0,12,
scooby_state_a5266d|1|0 0,0,0,2,1,0,0,0,1,0,2,5,0,0,0,11,
scooby_state_a52672|25|0 1,0,0,0,2,0,1,2,0,1,1,0,0,1,2,11,
scooby_state_a4c443|44|0 6,1,1,1,0,0,0,0,1,1,0,0,0,0,0,11,
scooby_state_a5266d|9|0 0,0,0,0,0,2,0,0,1,0,0,5,2,1,0,11,
scooby_state_a4c443|38|0 7,1,1,0,1,0,0,0,1,0,0,0,0,0,0,11,
scooby_state_a4c443|15|0 3,0,0,1,0,0,1,1,0,1,1,1,1,0,1,11,
scooby_state_40f7b0|48|1 0,0,11,0,0,0,0,0,0,0,0,0,0,0,0,11,
scooby_state_a5266d|12|0 0,1,0,0,0,0,0,0,0,1,0,6,1,2,0,11,
scooby_state_a52672|48|0 2,1,0,0,0,0,0,0,2,0,2,1,1,0,2,11,
scooby_state_a4c443|31|0 1,0,0,1,0,0,1,2,1,1,2,1,0,1,0,11,
scooby_state_40f7cb|12|1 0,11,0,0,0,0,0,0,0,0,0,0,0,0,0,11,
scooby_state_a52672|3|0 2,0,0,1,0,1,3,1,1,0,0,1,1,0,0,11,
scooby_state_40f7cb|28|1 0,11,0,0,0,0,0,0,0,0,0,0,0,0,0,11,
scooby_state_a5266d|44|0 0,1,0,1,0,0,0,0,0,2,0,6,0,1,0,11,
scooby_state_40f8cc|18|-45 2,0,1,0,0,1,0,0,1,0,0,2,1,1,2,11,
scooby_state_a4c443|13|0 6,1,1,1,1,0,0,0,0,0,0,0,0,0,1,11,
scooby_state_a52672|28|0 1,1,1,1,0,0,0,2,0,1,0,0,2,0,2,11,
scooby_state_a52672|43|0 2,0,0,1,1,1,1,0,0,1,0,0,0,0,3,10,
scooby_state_40f89a|3|0 10,0,0,0,0,0,0,0,0,0,0,0,0,0,0,10,
scooby_state_40f7cb|51|1 0,10,0,0,0,0,0,0,0,0,0,0,0,0,0,10,
scooby_state_a52672|22|0 1,0,1,1,0,1,1,2,1,0,0,2,0,0,0,10,
scooby_state_40f7cb|49|1 0,10,0,0,0,0,0,0,0,0,0,0,0,0,0,10,
scooby_state_a5266d|63|0 0,0,1,0,0,0,0,0,1,0,0,7,0,0,1,10,
scooby_state_40f7cb|50|1 0,10,0,0,0,0,0,0,0,0,0,0,0,0,0,10,
scooby_state_40f7b0|5|0 0,0,10,0,0,0,0,0,0,0,0,0,0,0,0,10,
scooby_state_a5266d|8|0 0,1,1,1,2,0,1,0,1,0,0,3,0,0,0,10,
scooby_state_40f8cc|56|-7 1,2,0,1,1,1,1,0,1,1,0,0,1,0,0,10,
scooby_state_a52672|20|0 0,0,0,0,0,0,1,0,0,1,1,0,2,3,2,10,
scooby_state_a4c443|16|0 3,1,0,1,1,0,0,0,0,0,0,1,1,1,1,10,
scooby_state_a4c443|56|0 3,1,2,0,0,0,1,0,0,1,1,0,0,0,1,10,
scooby_state_40f7cb|19|1 0,10,0,0,0,0,0,0,0,0,0,0,0,0,0,10,
scooby_state_a52672|6|0 0,2,2,0,1,0,0,1,0,0,0,0,0,2,2,10,
scooby_state_a5266d|30|0 1,1,0,0,1,0,0,0,1,0,0,5,1,0,0,10,
scooby_state_a5266d|34|0 0,0,1,0,0,0,0,1,3,0,1,4,0,0,0,10,
scooby_state_a4c443|37|0 5,0,0,0,0,0,0,0,1,0,0,0,1,1,2,10,
scooby_state_40f7cb|25|1 0,10,0,0,0,0,0,0,0,0,0,0,0,0,0,10,
scooby_state_40f7cb|35|1 0,10,0,0,0,0,0,0,0,0,0,0,0,0,0,10,
scooby_state_40f8cc|7|-56 10,0,0,0,0,0,0,0,0,0,0,0,0,0,0,10,
scooby_state_a4c443|50|0 4,1,1,0,1,0,1,0,0,0,1,0,1,0,0,10,
scooby_state_a52672|56|0 2,0,0,0,1,1,0,0,0,0,1,0,2,3,0,10,
scooby_state_a5266d|51|0 0,0,0,0,1,0,0,0,1,0,0,7,0,0,1,10,
scooby_state_40f7cb|54|1 0,10,0,0,0,0,0,0,0,0,0,0,0,0,0,10,
scooby_state_40f7cb|32|1 0,10,0,0,0,0,0,0,0,0,0,0,0,0,0,10,
scooby_state_a5266d|7|1 2,0,0,1,0,0,1,0,0,1,1,0,1,2,1,10,
scooby_state_a52672|8|0 1,2,0,1,0,1,1,0,0,0,0,1,0,1,2,10,
scooby_state_a4c443|41|0 2,2,0,1,0,0,1,1,1,0,0,1,1,0,0,10,
scooby_state_a5266d|14|1 0,5,0,1,0,1,1,1,0,0,0,0,0,0,1,10,
scooby_state_a4c443|9|0 1,0,0,0,1,0,0,0,0,1,1,1,2,1,2,10,
scooby_state_a4c443|1|1 1,1,0,0,1,0,0,1,1,2,0,0,1,1,1,10,
scooby_state_40f7cb|63|0 0,10,0,0,0,0,0,0,0,0,0,0,0,0,0,10,
scooby_state_a5266d|21|0 0,0,0,1,0,0,0,0,0,0,0,8,0,0,1,10,
scooby_state_40f8cc|55|-8 0,10,0,0,0,0,0,0,0,0,0,0,0,0,0,10,
scooby_state_a5266d|41|1 1,2,0,0,0,1,0,0,1,0,2,0,2,0,1,10,
scooby_state_a5266d|17|1 1,2,1,0,1,0,1,0,1,0,0,1,0,0,2,10,
scooby_state_40f7cb|52|1 0,9,0,0,0,0,0,0,0,0,0,0,0,0,0,9,
scooby_state_a4c443|49|0 3,1,0,0,0,0,0,0,1,1,0,0,1,0,2,9,
scooby_state_a52608|45|0 1,0,2,0,2,0,0,0,0,0,0,0,0,0,4,9,
scooby_state_a4c443|20|0 3,0,1,0,1,0,0,1,0,0,0,0,0,1,2,9,
scooby_state_40f7b0|18|0 0,0,9,0,0,0,0,0,0,0,0,0,0,0,0,9,
scooby_state_a52672|21|0 0,2,0,1,0,1,1,1,1,0,1,1,0,0,0,9,
scooby_state_a5266d|42|1 0,3,1,1,0,0,3,0,0,0,0,0,1,0,0,9,
scooby_state_40f7cb|36|1 1,8,0,0,0,0,0,0,0,0,0,0,0,0,0,9,
scooby_state_a52672|15|0 2,0,0,1,0,2,1,0,0,1,1,0,0,0,1,9,
scooby_state_a5266d|53|1 0,3,0,0,0,1,0,1,1,0,1,1,0,0,1,9,
scooby_state_40e196|39|1 9,0,0,0,0,0,0,0,0,0,0,0,0,0,0,9,
scooby_state_a4c443|44|1 0,1,1,0,2,0,1,0,1,0,0,1,0,2,0,9,
scooby_state_a4c443|60|0 1,1,0,0,1,1,0,0,0,2,0,0,1,1,1,9,
scooby_state_40f8cc|18|0 2,0,0,1,0,2,0,0,0,0,0,1,2,0,1,9,
scooby_state_40e196|10|1 9,0,0,0,0,0,0,0,0,0,0,0,0,0,0,9,
scooby_state_40e196|31|1 9,0,0,0,0,0,0,0,0,0,0,0,0,0,0,9,
scooby_state_a4c443|55|0 5,1,0,0,0,0,0,1,0,0,0,0,0,1,1,9,
scooby_state_a52672|26|0 0,2,0,1,0,1,1,0,0,0,0,2,0,0,2,9,
scooby_state_40f7c0|4|3 9,0,0,0,0,0,0,0,0,0,0,0,0,0,0,9,
scooby_state_40f7cb|47|1 0,9,0,0,0,0,0,0,0,0,0,0,0,0,0,9,
scooby_state_a52672|13|0 0,0,0,1,1,0,1,0,1,0,1,1,1,0,2,9,
scooby_state_40e196|61|1 9,0,0,0,0,0,0,0,0,0,0,0,0,0,0,9,
scooby_state_a4c443|13|1 2,1,1,2,0,0,0,0,0,0,0,1,1,1,0,9,
scooby_state_40f7cb|61|1 0,9,0,0,0,0,0,0,0,0,0,0,0,0,0,9,
scooby_state_a52672|14|0 0,0,1,2,1,0,0,0,2,0,0,0,0,1,2,9,
scooby_state_40f8cc|62|0 0,0,1,0,0,1,0,0,2,1,1,2,0,0,1,9,
scooby_state_a52672|23|0 1,0,0,0,0,3,0,1,0,1,0,0,0,2,1,9,
scooby_state_40e196|7|1 9,0,0,0,0,0,0,0,0,0,0,0,0,0,0,9,
scooby_state_a4c443|53|0 5,1,1,0,0,0,0,1,0,0,1,0,0,0,0,9,
scooby_state_a4c443|62|1 1,0,0,0,0,2,0,0,2,0,1,2,0,1,0,9,
scooby_state_40f7c0|12|3 9,0,0,0,0,0,0,0,0,0,0,0,0,0,0,9,
scooby_state_a4c443|16|1 0,0,1,1,0,1,0,0,1,0,1,1,1,1,1,9,
scooby_state_a52608|58|0 1,0,0,0,1,0,0,1,1,0,0,2,0,2,1,9,
scooby_state_a5266d|38|0 0,1,1,0,0,0,0,0,0,0,0,6,0,0,1,9,
scooby_state_40e196|11|1 9,0,0,0,0,0,0,0,0,0,0,0,0,0,0,9,
scooby_state_40e196|34|1 9,0,0,0,0,0,0,0,0,0,0,0,0,0,0,9,
scooby_state_40f8cc|0|0 0,0,1,0,1,2,0,0,2,0,0,0,1,0,2,9,
scooby_state_a4c443|63|1 1,0,0,0,2,0,2,1,1,0,0,0,1,1,0,9,
scooby_state_40e196|8|1 9,0,0,0,0,0,0,0,0,0,0,0,0,0,0,9,
scooby_state_a5266d|8|1 0,4,0,0,0,1,0,0,0,1,0,0,0,2,1,9,
scooby_state_40f7cb|10|1 0,9,0,0,0,0,0,0,0,0,0,0,0,0,0,9,
scooby_state_40e196|35|1 9,0,0,0,0,0,0,0,0,0,0,0,0,0,0,9,
scooby_state_a52672|63|0 0,0,1,0,2,0,0,1,1,0,0,1,1,0,2,9,
scooby_state_a5266d|39|0 0,1,0,0,0,0,1,1,0,0,0,5,0,1,0,9,
scooby_state_a52672|10|0 0,3,0,0,1,0,0,0,0,0,2,1,0,0,1,8,
scooby_state_a52672|38|0 0,3,0,0,0,2,0,0,0,2,0,0,0,0,1,8,
scooby_state_40f7cb|15|1 0,8,0,0,0,0,0,0,0,0,0,0,0,0,0,8,
scooby_state_40e196|3|1 8,0,0,0,0,0,0,0,0,0,0,0,0,0,0,8,
scooby_state_40e196|15|1 8,0,0,0,0,0,0,0,0,0,0,0,0,0,0,8,
scooby_state_40e196|13|1 8,0,0,0,0,0,0,0,0,0,0,0,0,0,0,8,
scooby_state_a5266d|11|0 0,1,0,0,0,0,2,1,0,0,0,3,0,1,0,8,
scooby_state_a52672|31|0 0,0,3,0,0,2,1,0,1,0,0,0,0,0,1,8,
scooby_state_a5266d|18|1 1,1,0,1,1,0,0,0,0,2,0,0,1,1,0,8,
scooby_state_40e196|12|1 8,0,0,0,0,0,0,0,0,0,0,0,0,0,0,8,
scooby_state_a4c443|50|1 2,1,0,0,0,0,1,1,0,1,1,1,0,0,0,8,
scooby_state_40f7c0|25|3 8,0,0,0,0,0,0,0,0,0,0,0,0,0,0,8,
scooby_state_40e196|36|1 8,0,0,0,0,0,0,0,0,0,0,0,0,0,0,8,
scooby_state_40e196|49|1 8,0,0,0,0,0,0,0,0,0,0,0,0,0,0,8,
scooby_state_a52608|9|0 2,1,0,0,0,0,0,2,0,1,0,1,0,0,1,8,
scooby_state_40e196|45|1 8,0,0,0,0,0,0,0,0,0,0,0,0,0,0,8,
scooby_state_40e196|54|1 8,0,0,0,0,0,0,0,0,0,0,0,0,0,0,8,
scooby_state_40f8cc|3|0 1,0,1,0,0,0,0,0,1,0,0,2,0,2,1,8,
scooby_state_40e196|20|1 8,0,0,0,0,0,0,0,0,0,0,0,0,0,0,8,
scooby_state_40e196|58|1 8,0,0,0,0,0,0,0,0,0,0,0,0,0,0,8,
scooby_state_a5266d|33|0 0,0,0,1,1,1,1,0,0,0,0,4,0,0,0,8,
scooby_state_40f8cc|52|-11 6,1,1,0,0,0,0,0,0,0,0,0,0,0,0,8,
scooby_state_a5266d|36|0 0,0,0,0,0,1,0,1,0,0,0,3,1,2,0,8,
scooby_state_40e196|17|1 8,0,0,0,0,0,0,0,0,0,0,0,0,0,0,8,
scooby_state_40e196|27|1 8,0,0,0,0,0,0,0,0,0,0,0,0,0,0,8,
scooby_state_40e196|43|1 8,0,0,0,0,0,0,0,0,0,0,0,0,0,0,8,
scooby_state_a4c443|45|0 1,0,1,0,1,0,0,1,0,0,1,0,1,1,1,8,
scooby_state_40f7b0|47|1 0,1,7,0,0,0,0,0,0,0,0,0,0,0,0,8,
scooby_state_40f7b0|8|0 0,0,8,0,0,0,0,0,0,0,0,0,0,0,0,8,
scooby_state_a4c443|2|1 1,0,0,0,0,0,1,1,3,0,0,0,0,1,1,8,
scooby_state_a5266d|37|0 0,0,2,0,0,1,0,0,0,0,0,2,0,0,3,8,
scooby_state_a52672|32|0 0,1,0,1,0,2,0,0,0,0,1,0,0,2,1,8,
scooby_state_40f8cc|61|0 2,0,1,0,0,1,0,0,0,1,0,1,0,2,0,8,
scooby_state_a52672|60|0 1,0,0,0,0,0,1,0,2,1,2,0,1,0,0,8,
scooby_state_40e196|62|1 8,0,0,0,0,0,0,0,0,0,0,0,0,0,0,8,
scooby_state_a4c443|46|0 5,0,0,0,0,0,1,2,0,0,0,0,0,0,0,8,
scooby_state_40e196|42|1 8,0,0,0,0,0,0,0,0,0,0,0,0,0,0,8,
scooby_state_a4c443|14|1 0,1,1,1,0,0,0,1,1,0,0,1,1,0,1,8,
scooby_state_a5266d|51|1 3,0,0,0,0,0,1,0,0,0,0,2,2,0,0,8,
scooby_state_a52672|24|0 1,1,0,2,1,0,0,0,0,0,1,0,0,0,2,8,
scooby_state_40f7b0|13|0 0,0,8,0,0,0,0,0,0,0,0,0,0,0,0,8,
scooby_state_a52608|29|0 4,0,0,0,0,1,0,1,0,0,0,1,0,0,1,8,
scooby_state_a52672|18|0 1,1,1,0,0,1,1,0,0,1,0,1,0,1,0,8,
scooby_state_40f7b0|11|0 0,0,8,0,0,0,0,0,0,0,0,0,0,0,0,8,
scooby_state_a5266d|23|1 0,4,0,0,1,0,0,0,1,1,0,0,0,0,1,8,
scooby_state_a5266d|46|1 1,1,0,0,0,2,0,0,0,1,0,1,0,1,1,8,
scooby_state_a5266d|13|1 1,1,0,0,0,0,0,0,0,1,1,0,0,1,3,8,
scooby_state_a52672|17|0 1,1,0,0,0,0,0,0,0,1,0,1,1,0,3,8,
scooby_state_a52672|5|0 0,1,0,0,1,0,1,2,0,0,2,0,1,0,0,8,
scooby_state_40f8cc|54|0 3,0,0,0,0,0,0,0,1,1,1,1,1,0,0,8,
scooby_state_a4c443|35|0 2,2,2,0,0,1,0,0,0,0,0,0,0,1,0,8,
scooby_state_a52608|12|0 1,0,1,0,1,0,0,0,1,1,0,0,0,3,0,8,
scooby_state_40f7b0|3|0 0,0,8,0,0,0,0,0,0,0,0,0,0,0,0,8,
scooby_state_a5266d|15|1 1,1,1,0,0,0,1,0,3,1,0,0,0,0,0,8,
scooby_state_40f7cb|18|1 0,8,0,0,0,0,0,0,0,0,0,0,0,0,0,8,
scooby_state_a52672|7|0 0,1,0,0,0,0,0,2,0,0,1,0,0,1,3,8,
scooby_state_a4c443|54|0 2,0,1,0,0,0,0,0,1,0,0,0,1,1,2,8,
scooby_state_40f7cb|48|1 0,8,0,0,0,0,0,0,0,0,0,0,0,0,0,8,
scooby_state_a4c443|32|0 0,0,1,0,1,0,0,0,1,1,0,2,0,1,1,8,
scooby_state_a4c443|5|1 0,1,0,0,0,1,0,1,1,1,1,0,0,0,1,7,
scooby_state_a5266d|19|1 1,2,2,0,0,1,0,0,0,0,0,0,1,0,0,7,
scooby_state_a4c443|17|1 1,1,0,0,0,0,0,2,0,0,1,1,0,1,0,7,
scooby_state_40f7cb|46|1 0,7,0,0,0,0,0,0,0,0,0,0,0,0,0,7,
scooby_state_40e196|16|1 7,0,0,0,0,0,0,0,0,0,0,0,0,0,0,7,
scooby_state_a52672|6|2 0,0,0,0,0,0,1,0,0,1,0,1,0,1,3,7,
scooby_state_a4c443|59|1 0,1,0,0,1,0,0,2,0,0,1,1,1,0,0,7,
scooby_state_40f7cb|29|1 0,7,0,0,0,0,0,0,0,0,0,0,0,0,0,7,
scooby_state_a5266d|5|1 0,2,0,2,0,0,0,1,0,0,0,0,0,0,2,7,
scooby_state_a4c443|27|1 2,0,1,0,1,0,0,0,0,0,1,0,0,1,1,7,
scooby_state_40e196|51|1 7,0,0,0,0,0,0,0,0,0,0,0,0,0,0,7,
scooby_state_40e196|52|1 7,0,0,0,0,0,0,0,0,0,0,0,0,0,0,7,
scooby_state_a52608|24|0 0,0,0,1,0,0,0,2,0,0,1,0,1,1,1,7,
scooby_state_a4c443|43|1 1,0,0,0,0,0,0,0,0,0,2,0,1,0,3,7,
scooby_state_a52608|49|0 0,0,0,0,0,1,1,0,2,2,0,1,0,0,0,7,
scooby_state_a52672|36|0 0,0,0,0,1,0,1,0,0,0,1,0,0,1,3,7,
scooby_state_40f7cb|31|1 0,7,0,0,0,0,0,0,0,0,0,0,0,0,0,7,
scooby_state_a5266d|60|0 0,0,0,0,0,0,1,1,0,1,0,3,0,0,1,7,
scooby_state_a4c443|3|0 5,0,0,1,0,0,0,0,0,0,0,0,0,0,1,7,
scooby_state_a5266d|43|0 1,0,1,1,0,0,0,0,0,0,0,3,0,0,1,7,
scooby_state_40e196|32|1 7,0,0,0,0,0,0,0,0,0,0,0,0,0,0,7,
scooby_state_a5266d|33|1 2,0,0,0,1,0,0,1,0,1,0,0,1,0,1,7,
scooby_state_a52672|29|0 0,1,0,1,0,0,0,1,0,0,1,0,2,0,1,7,
scooby_state_a52672|62|0 1,1,0,0,0,1,1,1,0,0,1,0,0,0,1,7,
scooby_state_a52672|30|0 0,0,0,1,1,1,0,0,0,1,1,1,0,0,1,7,
scooby_state_a5266d|48|0 0,0,0,1,0,0,0,0,0,0,1,4,0,0,1,7,
scooby_state_a525ef|12|0 0,0,0,0,0,0,0,0,0,0,0,7,0,0,0,7,
scooby_state_a4c443|60|1 1,0,0,1,0,0,0,0,0,2,0,1,1,0,1,7,
scooby_state_40e196|25|1 7,0,0,0,0,0,0,0,0,0,0,0,0,0,0,7,
scooby_state_40f8cc|60|0 1,0,0,1,0,0,0,0,0,0,0,3,1,0,1,7,
scooby_state_40e196|29|1 7,0,0,0,0,0,0,0,0,0,0,0,0,0,0,7,
scooby_state_a5266d|52|1 0,2,0,0,0,2,0,0,1,0,0,2,0,0,0,7,
scooby_state_a52672|35|0 1,1,0,0,0,0,1,1,0,1,0,1,1,0,0,7,
scooby_state_40f7cb|13|1 0,7,0,0,0,0,0,0,0,0,0,0,0,0,0,7,
scooby_state_40f8cc|57|0 2,0,0,1,0,0,1,0,0,0,0,3,0,0,0,7,
scooby_state_40e28b|61|1 7,0,0,0,0,0,0,0,0,0,0,0,0,0,0,7,
scooby_state_a5266d|29|0 0,0,2,1,0,0,0,0,0,0,0,2,1,0,1,7,
scooby_state_40e196|33|1 7,0,0,0,0,0,0,0,0,0,0,0,0,0,0,7,
scooby_state_a4c443|8|1 1,0,3,0,0,0,0,1,0,0,1,1,0,0,0,7,
scooby_state_40e196|38|1 7,0,0,0,0,0,0,0,0,0,0,0,0,0,0,7,
scooby_state_40f8cc|8|0 3,1,0,0,0,0,1,0,1,0,0,1,0,0,0,7,
scooby_state_40e196|46|1 7,0,0,0,0,0,0,0,0,0,0,0,0,0,0,7,
scooby_state_a4c443|15|1 0,1,1,0,0,0,0,1,0,1,0,2,0,1,0,7,
scooby_state_40f7b0|34|1 0,0,7,0,0,0,0,0,0,0,0,0,0,0,0,7,
scooby_state_a4c443|19|1 0,0,1,1,0,0,2,0,0,0,0,1,0,0,2,7,
scooby_state_a4c443|30|0 3,1,0,1,0,1,0,0,0,0,0,0,1,0,0,7,
scooby_state_40e28b|44|1 7,0,0,0,0,0,0,0,0,0,0,0,0,0,0,7,
scooby_state_a4c443|31|1 1,0,0,1,1,0,1,0,0,0,1,0,0,1,1,7,
scooby_state_a52608|3|0 0,0,0,0,0,0,0,0,1,0,1,0,0,0,5,7,
scooby_state_40e196|18|1 7,0,0,0,0,0,0,0,0,0,0,0,0,0,0,7,
scooby_state_40e196|40|1 7,0,0,0,0,0,0,0,0,0,0,0,0,0,0,7,
scooby_state_40f7cb|34|1 0,7,0,0,0,0,0,0,0,0,0,0,0,0,0,7,
scooby_state_a52672|6|1 2,1,0,0,0,0,1,0,0,1,1,1,0,0,0,7,
scooby_state_40e196|19|1 7,0,0,0,0,0,0,0,0,0,0,0,0,0,0,7,
scooby_state_a52672|44|0 1,0,0,2,0,1,0,0,0,1,0,0,0,0,2,7,
scooby_state_40e196|22|1 7,0,0,0,0,0,0,0,0,0,0,0,0,0,0,7,
scooby_state_40e196|14|1 7,0,0,0,0,0,0,0,0,0,0,0,0,0,0,7,
scooby_state_40e196|30|1 7,0,0,0,0,0,0,0,0,0,0,0,0,0,0,7,
scooby_state_a5266d|48|1 0,1,1,0,1,0,0,0,0,0,1,2,0,0,1,7,
scooby_state_a5266d|34|1 0,0,1,3,0,0,0,1,0,1,0,0,0,1,0,7,
scooby_state_a5266d|35|0 0,0,0,0,0,0,0,0,1,1,1,4,0,0,0,7,
scooby_state_40e196|55|1 7,0,0,0,0,0,0,0,0,0,0,0,0,0,0,7,
scooby_state_40e196|28|1 7,0,0,0,0,0,0,0,0,0,0,0,0,0,0,7,
scooby_state_40f7cb|43|1 0,7,0,0,0,0,0,0,0,0,0,0,0,0,0,7,
scooby_state_40f7b0|26|0 0,0,7,0,0,0,0,0,0,0,0,0,0,0,0,7,
scooby_state_40e196|37|1 7,0,0,0,0,0,0,0,0,0,0,0,0,0,0,7,
scooby_state_40e196|63|1 7,0,0,0,0,0,0,0,0,0,0,0,0,0,0,7,
scooby_state_40e196|60|1 7,0,0,0,0,0,0,0,0,0,0,0,0,0,0,7,
scooby_state_40e196|23|1 7,0,0,0,0,0,0,0,0,0,0,0,0,0,0,7,
scooby_state_a4c443|56|1 1,0,0,0,0,1,0,0,0,2,1,0,1,0,1,7,
scooby_state_40e196|0|0 7,0,0,0,0,0,0,0,0,0,0,0,0,0,0,7,
scooby_state_40e196|57|1 7,0,0,0,0,0,0,0,0,0,0,0,0,0,0,7,
scooby_state_a52608|14|0 0,0,1,1,0,0,0,2,0,0,1,0,1,0,1,7,
scooby_state_40f8cc|47|0 2,0,0,0,1,0,0,1,0,0,1,2,0,0,0,7,
scooby_state_a5266d|43|1 1,3,0,0,0,0,2,0,0,0,0,0,0,1,0,7,
scooby_state_a4c443|26|0 2,0,1,0,0,0,0,0,0,1,1,1,0,0,1,7,
scooby_state_40f7b0|31|0 0,0,7,0,0,0,0,0,0,0,0,0,0,0,0,7,
scooby_state_a4c443|49|1 0,0,0,1,1,0,0,2,1,1,0,0,1,0,0,7,
scooby_state_40e196|4|1 7,0,0,0,0,0,0,0,0,0,0,0,0,0,0,7,
scooby_state_a52672|34|0 0,0,1,0,1,1,1,0,2,0,0,0,1,0,0,7,
scooby_state_a52672|55|1 0,0,0,0,1,1,0,1,0,0,0,1,0,1,2,7,
scooby_state_40e196|5|1 7,0,0,0,0,0,0,0,0,0,0,0,0,0,0,7,
scooby_state_a52672|29|1 0,0,0,0,1,1,0,0,1,2,0,0,0,1,1,7,
scooby_state_a5266d|3|0 1,0,0,1,0,0,0,0,1,0,0,3,0,0,1,7,
scooby_state_40e196|41|1 7,0,0,0,0,0,0,0,0,0,0,0,0,0,0,7,
scooby_state_a5266d|62|0 0,0,0,0,0,0,0,0,0,0,1,6,0,0,0,7,
scooby_state_a5266d|63|1 0,1,1,0,1,2,0,0,0,0,0,0,1,0,1,7,
scooby_state_a5266d|26|0 0,0,2,0,0,0,0,0,0,0,0,4,0,0,1,7,
scooby_state_40e196|9|1 7,0,0,0,0,0,0,0,0,0,0,0,0,0,0,7,
scooby_state_a5266d|47|1 1,0,0,1,0,0,0,1,0,0,2,1,0,0,1,7,
scooby_state_a5266d|10|0 0,0,2,0,0,0,1,0,1,0,0,3,0,0,0,7,
scooby_state_a5266d|16|1 0,1,0,0,0,0,2,1,0,0,0,1,1,0,0,6,
scooby_state_40e28b|60|1 6,0,0,0,0,0,0,0,0,0,0,0,0,0,0,6,
scooby_state_40f7b0|51|0 0,0,6,0,0,0,0,0,0,0,0,0,0,0,0,6,
scooby_state_40e28b|32|1 6,0,0,0,0,0,0,0,0,0,0,0,0,0,0,6,
scooby_state_a525ef|49|0 0,0,0,0,0,0,0,0,0,0,0,6,0,0,0,6,
scooby_state_40e28b|34|1 6,0,0,0,0,0,0,0,0,0,0,0,0,0,0,6,
scooby_state_40f7b0|50|0 0,0,6,0,0,0,0,0,0,0,0,0,0,0,0,6,
scooby_state_40f8cc|1|0 1,1,0,0,1,0,0,0,0,0,0,1,0,1,1,6,
scooby_state_40e28b|7|1 6,0,0,0,0,0,0,0,0,0,0,0,0,0,0,6,
scooby_state_a4c443|7|0 1,1,0,1,0,1,1,0,0,0,1,0,0,0,0,6,
scooby_state_a4c443|29|1 1,0,0,0,1,1,0,0,0,1,0,0,2,0,0,6,
scooby_state_a52608|4|0 1,0,1,1,0,0,0,1,0,0,0,0,0,0,2,6,
scooby_state_a4c443|55|1 3,0,0,1,0,1,0,0,0,0,0,0,0,0,1,6,
scooby_state_a52672|40|0 0,1,1,1,1,0,0,0,1,0,0,1,0,0,0,6,
scooby_state_40f7b0|58|1 0,0,6,0,0,0,0,0,0,0,0,0,0,0,0,6,
scooby_state_a5266d|25|0 0,0,0,1,0,0,1,0,0,0,0,4,0,0,0,6,
scooby_state_40e196|6|1 6,0,0,0,0,0,0,0,0,0,0,0,0,0,0,6,
scooby_state_a5266d|50|0 0,0,0,1,0,0,0,0,0,0,0,3,1,1,0,6,
scooby_state_40e196|56|1 6,0,0,0,0,0,0,0,0,0,0,0,0,0,0,6,
scooby_state_a4c443|58|1 2,1,1,0,0,1,1,0,0,0,0,0,0,0,0,6,
scooby_state_40e196|44|1 6,0,0,0,0,0,0,0,0,0,0,0,0,0,0,6,
scooby_state_a5266d|45|1 1,0,0,1,0,1,1,1,1,0,0,0,0,0,0,6,
scooby_state_a4c443|35|1 0,1,0,0,0,1,0,1,1,1,1,0,0,0,0,6,
scooby_state_a5266d|55|2 6,0,0,0,0,0,0,0,0,0,0,0,0,0,0,6,
scooby_state_40f8cc|52|0 3,0,0,0,0,0,0,1,0,0,0,1,0,1,0,6,
scooby_state_a52608|21|0 0,1,1,0,1,0,1,0,0,1,1,0,0,0,0,6,
scooby_state_a4c443|3|1 1,1,0,1,0,1,0,0,0,0,1,0,0,0,1,6,
scooby_state_40f7cb|30|1 0,6,0,0,0,0,0,0,0,0,0,0,0,0,0,6,
scooby_state_a52672|47|0 2,0,0,1,0,1,0,0,0,1,0,0,1,0,0,6,
scooby_state_a52672|16|0 0,0,0,1,0,0,0,0,0,0,1,1,2,0,1,6,
scooby_state_a52672|39|1 0,1,2,0,0,0,0,0,0,1,0,0,1,0,1,6,
scooby_state_40e196|24|1 6,0,0,0,0,0,0,0,0,0,0,0,0,0,0,6,
scooby_state_a52608|35|0 1,0,1,1,0,0,0,0,0,0,1,2,0,0,0,6,
scooby_state_40f7b0|56|1 0,0,6,0,0,0,0,0,0,0,0,0,0,0,0,6,
scooby_state_a4c443|25|1 1,0,0,1,0,1,0,1,1,0,1,0,0,0,0,6,
scooby_state_40f8cc|44|0 2,0,0,2,0,0,0,0,0,0,0,0,1,0,1,6,
scooby_state_40f7b0|29|0 0,0,6,0,0,0,0,0,0,0,0,0,0,0,0,6,
scooby_state_40e28b|39|1 6,0,0,0,0,0,0,0,0,0,0,0,0,0,0,6,
scooby_state_a52608|11|0 2,1,0,0,0,1,0,0,0,1,0,0,1,0,0,6,
scooby_state_40f8cc|59|0 0,0,0,0,1,0,1,1,0,0,0,2,0,0,1,6,
scooby_state_40e28b|35|1 6,0,0,0,0,0,0,0,0,0,0,0,0,0,0,6,
scooby_state_a52672|15|1 0,0,1,2,0,0,0,0,1,0,0,0,0,0,2,6,
scooby_state_40f7b0|22|0 0,0,6,0,0,0,0,0,0,0,0,0,0,0,0,6,
scooby_state_40e28b|30|1 6,0,0,0,0,0,0,0,0,0,0,0,0,0,0,6,
scooby_state_40f8cc|45|0 2,0,0,0,0,0,0,0,0,1,0,3,0,0,0,6,
scooby_state_40e28b|40|1 6,0,0,0,0,0,0,0,0,0,0,0,0,0,0,6,
scooby_state_40f7cb|41|1 0,6,0,0,0,0,0,0,0,0,0,0,0,0,0,6,
scooby_state_a4c443|47|0 1,1,1,0,0,0,0,1,1,0,0,1,0,0,0,6,
scooby_state_40f8cc|41|0 2,0,1,0,0,1,0,0,0,0,0,2,0,0,0,6,
scooby_state_a52672|28|1 0,0,0,0,1,0,1,0,0,2,0,1,0,1,0,6,
scooby_state_a5266d|6|1 0,1,0,0,2,0,0,0,1,1,0,0,0,0,1,6,
scooby_state_40f8cc|42|0 2,0,0,1,0,0,0,0,0,1,0,1,0,1,0,6,
scooby_state_40e196|48|1 6,0,0,0,0,0,0,0,0,0,0,0,0,0,0,6,
scooby_state_a4c443|36|0 2,0,0,1,0,1,0,0,0,0,1,1,0,0,0,6,
scooby_state_40e196|47|1 6,0,0,0,0,0,0,0,0,0,0,0,0,0,0,6,
scooby_state_a4c443|24|0 1,1,0,0,0,0,0,0,0,0,0,2,1,0,1,6,
scooby_state_40e28b|10|1 6,0,0,0,0,0,0,0,0,0,0,0,0,0,0,6,
scooby_state_40f7b0|33|0 0,0,6,0,0,0,0,0,0,0,0,0,0,0,0,6,
scooby_state_a4c443|20|1 2,1,0,0,0,2,0,0,0,0,0,0,1,0,0,6,
scooby_state_a52672|58|0 0,0,3,1,0,0,0,1,1,0,0,0,0,0,0,6,
scooby_state_a5266d|54|1 1,1,0,1,0,0,0,0,1,0,1,0,0,1,0,6,
scooby_state_40e196|21|1 6,0,0,0,0,0,0,0,0,0,0,0,0,0,0,6,
scooby_state_a52672|42|0 0,0,1,0,0,1,0,0,0,1,0,0,0,0,3,6,
scooby_state_40e28b|0|0 6,0,0,0,0,0,0,0,0,0,0,0,0,0,0,6,
scooby_state_a5266d|32|0 1,1,1,0,0,0,0,0,0,0,0,3,0,0,0,6,
scooby_state_a52608|61|0 0,0,1,1,0,1,1,1,1,0,0,0,0,0,0,6,
scooby_state_a4c443|24|1 0,0,0,1,0,0,1,0,1,0,0,0,1,1,1,6,
scooby_state_a52608|51|0 1,0,0,1,0,1,0,0,0,1,0,1,0,0,1,6,
scooby_state_a4c443|40|0 3,0,0,0,0,0,1,0,0,0,0,2,0,0,0,6,
scooby_state_a5266d|40|1 0,0,2,1,2,0,0,0,0,1,0,0,0,0,0,6,
scooby_state_a5266d|49|1 0,2,0,1,0,1,0,1,0,0,0,1,0,0,0,6,
scooby_state_a5266d|45|0 0,0,0,0,0,0,0,1,0,0,0,5,0,0,0,6,
scooby_state_a52672|59|0 1,0,0,1,0,0,0,0,0,0,0,0,2,0,2,6,
scooby_state_a4c443|61|1 1,0,1,1,0,1,0,0,0,0,0,0,0,2,0,6,
scooby_state_a4c443|12|1 0,0,2,0,1,0,1,0,0,0,0,1,0,0,1,6,
scooby_state_a52672|30|1 0,0,3,0,0,0,0,0,0,1,1,0,0,1,0,6,
scooby_state_40f7b0|27|1 0,0,6,0,0,0,0,0,0,0,0,0,0,0,0,6,
scooby_state_40e28b|42|1 6,0,0,0,0,0,0,0,0,0,0,0,0,0,0,6,
scooby_state_a5266d|21|1 0,2,1,0,0,0,0,1,0,0,0,0,1,0,1,6,
scooby_state_40f8cc|40|0 2,0,0,0,0,0,1,0,0,0,0,1,1,1,0,6,
scooby_state_40e28b|37|1 6,0,0,0,0,0,0,0,0,0,0,0,0,0,0,6,
scooby_state_a525ef|53|0 0,0,0,0,0,0,0,0,0,0,0,6,0,0,0,6,
scooby_state_a4c443|9|1 1,1,0,1,0,0,0,0,0,1,0,0,0,1,1,6,
scooby_state_a52672|54|0 0,0,0,0,0,1,0,1,0,1,0,1,0,0,2,6,
scooby_state_40f8cc|36|0 0,0,1,0,0,0,0,0,1,0,0,2,0,0,2,6,
scooby_state_40f8cc|2|0 0,0,0,0,0,0,1,1,0,1,1,1,1,0,0,6,
scooby_state_a52608|41|0 1,3,0,0,0,0,0,0,0,0,1,0,1,0,0,6,
scooby_state_40f7c0|60|17 6,0,0,0,0,0,0,0,0,0,0,0,0,0,0,6,
scooby_state_40e28b|29|1 6,0,0,0,0,0,0,0,0,0,0,0,0,0,0,6,
scooby_state_40e28b|12|1 6,0,0,0,0,0,0,0,0,0,0,0,0,0,0,6,
scooby_state_a52608|10|0 0,1,1,0,0,1,0,1,0,0,1,0,0,0,1,6,
scooby_state_a4c443|45|1 1,0,0,2,2,0,0,0,0,0,0,0,0,1,0,6,
scooby_state_a52672|55|0 0,0,0,1,1,0,1,0,0,0,0,0,1,0,2,6,
scooby_state_40e28b|5|1 6,0,0,0,0,0,0,0,0,0,0,0,0,0,0,6,
scooby_state_a5266d|20|1 2,3,0,0,0,0,0,0,0,0,0,1,0,0,0,6,
scooby_state_40e28b|2|1 6,0,0,0,0,0,0,0,0,0,0,0,0,0,0,6,
scooby_state_40f8cc|27|0 2,1,0,0,0,0,0,0,0,0,0,0,0,1,2,6,
scooby_state_a5266d|47|0 0,0,0,0,0,0,0,1,0,1,1,2,0,1,0,6,
scooby_state_a4c443|23|1 1,0,2,1,0,0,0,0,1,0,1,0,0,0,0,6,
scooby_state_40f7b0|23|0 0,0,6,0,0,0,0,0,0,0,0,0,0,0,0,6,
scooby_state_a5266d|27|1 0,0,1,0,0,0,0,0,0,0,1,1,0,1,1,5,
scooby_state_a4c443|10|1 1,0,0,1,1,0,0,0,0,1,0,1,0,0,0,5,
scooby_state_40f7c0|35|17 5,0,0,0,0,0,0,0,0,0,0,0,0,0,0,5,
scooby_state_a5266d|57|1 1,0,1,1,0,0,0,0,0,0,1,0,1,0,0,5,
scooby_state_40f8cc|39|0 0,1,0,1,1,0,1,0,0,0,0,0,1,0,0,5,
scooby_state_40e28b|63|1 5,0,0,0,0,0,0,0,0,0,0,0,0,0,0,5,
scooby_state_a5266d|26|1 0,1,0,0,0,0,0,0,0,0,0,1,0,2,1,5,
scooby_state_a52672|13|1 0,0,0,0,0,0,0,0,0,1,0,1,0,1,2,5,
scooby_state_40f7b0|50|1 0,0,5,0,0,0,0,0,0,0,0,0,0,0,0,5,
scooby_state_a52608|60|0 0,0,1,0,1,0,0,0,0,2,0,0,0,1,0,5,
scooby_state_a52608|46|0 0,0,0,0,0,1,0,0,0,0,1,1,2,0,0,5,
scooby_state_a4c443|61|2 0,2,0,0,1,0,0,2,0,0,0,0,0,0,0,5,
scooby_state_a52672|41|0 0,0,0,0,1,0,1,0,0,0,0,0,1,1,1,5,
scooby_state_40f7b0|58|0 0,0,5,0,0,0,0,0,0,0,0,0,0,0,0,5,
scooby_state_a4c443|57|1 2,0,1,1,0,0,0,0,1,0,0,0,0,0,0,5,
scooby_state_40f7b0|5|3 0,0,5,0,0,0,0,0,0,0,0,0,0,0,0,5,
scooby_state_a5266d|62|1 1,1,0,1,0,0,0,0,1,0,0,0,0,0,1,5,
scooby_state_a525ef|45|0 0,0,0,0,0,0,0,0,0,0,0,5,0,0,0,5,
scooby_state_40e28b|24|1 5,0,0,0,0,0,0,0,0,0,0,0,0,0,0,5,
scooby_state_40f7b0|55|1 0,0,5,0,0,0,0,0,0,0,0,0,0,0,0,5,
scooby_state_a52672|49|0 0,0,2,0,0,0,0,0,1,0,0,0,0,0,2,5,
scooby_state_a4c443|30|1 0,0,1,0,1,1,0,0,0,1,0,0,0,0,1,5,
scooby_state_a52608|53|0 2,0,0,0,0,1,0,0,0,0,0,0,1,0,1,5,
scooby_state_40f7b0|59|2 5,0,0,0,0,0,0,0,0,0,0,0,0,0,0,5,
scooby_state_40f7b0|57|1 0,0,5,0,0,0,0,0,0,0,0,0,0,0,0,5,
scooby_state_40f8cc|5|0 2,0,0,0,0,1,0,0,0,1,0,0,0,1,0,5,
scooby_state_40f8cc|16|0 1,0,1,0,0,1,0,0,0,0,0,1,0,0,1,5,
scooby_state_a5266d|3|1 1,2,0,0,0,0,0,1,0,0,0,0,0,0,1,5,
scooby_state_a52608|17|0 2,0,1,0,0,0,0,0,0,0,1,0,0,1,0,5,
scooby_state_a52672|52|1 0,1,0,0,0,0,0,0,0,3,0,0,1,0,0,5,
scooby_state_40f7b0|30|0 0,0,5,0,0,0,0,0,0,0,0,0,0,0,0,5,
scooby_state_a5266d|4|1 0,1,0,0,2,0,0,0,0,0,0,0,2,0,0,5,
scooby_state_40e28b|19|1 5,0,0,0,0,0,0,0,0,0,0,0,0,0,0,5,
scooby_state_40f7b0|10|1 0,0,5,0,0,0,0,0,0,0,0,0,0,0,0,5,
scooby_state_a525ef|39|0 0,0,0,0,0,0,0,0,0,0,0,5,0,0,0,5,
scooby_state_40f7b0|28|1 0,0,5,0,0,0,0,0,0,0,0,0,0,0,0,5,
scooby_state_40e196|59|1 5,0,0,0,0,0,0,0,0,0,0,0,0,0,0,5,
scooby_state_40f7b0|14|0 0,0,5,0,0,0,0,0,0,0,0,0,0,0,0,5,
scooby_state_a52608|50|0 1,0,0,0,0,1,0,1,1,0,0,0,1,0,0,5,
scooby_state_a52608|0|0 0,0,0,1,0,0,0,0,0,1,1,0,2,0,0,5,
scooby_state_a5266d|30|1 0,0,1,0,0,0,0,2,1,0,0,0,1,0,0,5,
scooby_state_a5266d|28|1 0,4,0,0,0,0,0,0,0,1,0,0,0,0,0,5,
scooby_state_a4c443|39|1 1,1,0,1,1,1,0,0,0,0,0,0,0,0,0,5,
scooby_state_a52608|33|0 1,1,0,1,0,0,1,0,0,1,0,0,0,0,0,5,
scooby_state_40e28b|22|1 5,0,0,0,0,0,0,0,0,0,0,0,0,0,0,5,
scooby_state_40e28b|26|1 5,0,0,0,0,0,0,0,0,0,0,0,0,0,0,5,
scooby_state_40e290|1|1 5,0,0,0,0,0,0,0,0,0,0,0,0,0,0,5,
scooby_state_40e28b|1|1 5,0,0,0,0,0,0,0,0,0,0,0,0,0,0,5,
scooby_state_40e28b|59|1 5,0,0,0,0,0,0,0,0,0,0,0,0,0,0,5,
scooby_state_40e28b|46|1 5,0,0,0,0,0,0,0,0,0,0,0,0,0,0,5,
scooby_state_40e28b|55|1 5,0,0,0,0,0,0,0,0,0,0,0,0,0,0,5,
scooby_state_40e28b|52|1 5,0,0,0,0,0,0,0,0,0,0,0,0,0,0,5,
scooby_state_a52608|27|0 0,0,0,0,1,0,1,0,0,0,0,0,0,1,2,5,
scooby_state_40e28b|47|1 5,0,0,0,0,0,0,0,0,0,0,0,0,0,0,5,
scooby_state_40e28b|45|1 5,0,0,0,0,0,0,0,0,0,0,0,0,0,0,5,
scooby_state_40e19d|43|1 4,0,0,0,0,0,0,0,0,0,0,1,0,0,0,5,
scooby_state_40e19d|38|1 4,0,0,0,0,0,0,0,0,0,0,1,0,0,0,5,
scooby_state_a525ef|25|0 0,0,0,0,0,0,0,0,0,0,0,5,0,0,0,5,
scooby_state_40e19d|33|1 4,0,0,0,0,0,0,0,0,0,0,1,0,0,0,5,
scooby_state_40e28b|4|1 5,0,0,0,0,0,0,0,0,0,0,0,0,0,0,5,
scooby_state_a52608|63|0 0,0,0,0,0,0,0,0,1,1,0,0,0,1,2,5,
scooby_state_40e28b|3|1 5,0,0,0,0,0,0,0,0,0,0,0,0,0,0,5,
scooby_state_40e28b|27|1 5,0,0,0,0,0,0,0,0,0,0,0,0,0,0,5,
scooby_state_40e28b|25|1 5,0,0,0,0,0,0,0,0,0,0,0,0,0,0,5,
scooby_state_40e28b|57|1 5,0,0,0,0,0,0,0,0,0,0,0,0,0,0,5,
scooby_state_40e28b|62|1 5,0,0,0,0,0,0,0,0,0,0,0,0,0,0,5,
scooby_state_a525fb|37|-1 1,0,0,0,0,0,0,0,2,0,0,0,1,0,1,5,
scooby_state_40e28b|15|1 5,0,0,0,0,0,0,0,0,0,0,0,0,0,0,5,
scooby_state_40e28b|14|1 5,0,0,0,0,0,0,0,0,0,0,0,0,0,0,5,
scooby_state_a525ef|46|0 0,0,0,0,0,0,0,0,0,0,0,5,0,0,0,5,
scooby_state_40f8cc|53|0 2,0,0,0,0,0,1,0,0,0,0,2,0,0,0,5,
scooby_state_a52672|17|1 1,0,0,1,1,0,0,0,0,1,0,0,0,0,1,5,
scooby_state_a5266d|60|1 1,0,1,0,0,0,1,0,0,0,0,0,1,1,0,5,
scooby_state_40f8cc|28|0 0,1,0,0,1,0,0,0,1,0,0,2,0,0,0,5,
scooby_state_40e28b|6|1 5,0,0,0,0,0,0,0,0,0,0,0,0,0,0,5,
scooby_state_a52672|29|4 0,5,0,0,0,0,0,0,0,0,0,0,0,0,0,5,
scooby_state_a5266d|9|1 0,0,0,0,0,2,0,1,0,0,1,0,1,0,0,5,
scooby_state_a5266d|38|1 0,3,0,0,0,1,0,0,0,1,0,0,0,0,0,5,
scooby_state_a4c443|26|1 0,1,0,0,1,0,1,1,0,0,0,0,0,0,1,5,
scooby_state_a4c443|18|1 0,0,1,0,0,0,0,1,0,0,1,0,1,1,0,5,
scooby_state_40f8cc|19|0 1,1,1,0,1,0,0,0,0,0,0,0,0,0,1,5,
scooby_state_40e28b|20|1 5,0,0,0,0,0,0,0,0,0,0,0,0,0,0,5,
scooby_state_40f7b0|52|0 0,0,5,0,0,0,0,0,0,0,0,0,0,0,0,5,
scooby_state_a5266d|24|1 1,0,0,1,0,0,1,0,1,0,0,0,0,0,1,5,
scooby_state_a52672|41|1 0,0,2,1,0,0,1,0,1,0,0,0,0,0,0,5,
scooby_state_40f8cc|14|0 2,0,0,0,0,0,0,1,0,0,0,0,0,1,1,5,
scooby_state_a52672|8|2 0,1,0,0,1,0,0,0,1,0,0,1,1,0,0,5,
scooby_state_a52672|57|0 0,0,1,1,0,2,0,1,0,0,0,0,0,0,0,5,
scooby_state_40e196|50|1 5,0,0,0,0,0,0,0,0,0,0,0,0,0,0,5,
scooby_state_a52608|34|0 0,0,1,1,1,0,0,1,0,0,0,0,0,1,0,5,
scooby_state_40f7c0|50|5 5,0,0,0,0,0,0,0,0,0,0,0,0,0,0,5,
scooby_state_40f7b0|35|1 0,0,5,0,0,0,0,0,0,0,0,0,0,0,0,5,
scooby_state_40e28b|56|1 5,0,0,0,0,0,0,0,0,0,0,0,0,0,0,5,
scooby_state_a5266d|22|0 0,0,1,0,0,0,0,0,0,0,0,3,0,0,1,5,
scooby_state_40e28b|51|1 5,0,0,0,0,0,0,0,0,0,0,0,0,0,0,5,
scooby_state_a52672|4|3 5,0,0,0,0,0,0,0,0,0,0,0,0,0,0,5,
scooby_state_a52672|23|2 0,1,0,0,0,1,1,0,0,0,0,1,0,1,0,5,
scooby_state_40e28b|41|1 5,0,0,0,0,0,0,0,0,0,0,0,0,0,0,5,
scooby_state_40e28b|36|1 5,0,0,0,0,0,0,0,0,0,0,0,0,0,0,5,
scooby_state_a4c443|21|1 1,1,0,0,0,1,1,0,0,0,0,0,0,0,1,5,
scooby_state_40e28b|31|1 5,0,0,0,0,0,0,0,0,0,0,0,0,0,0,5,
scooby_state_40e28b|21|1 5,0,0,0,0,0,0,0,0,0,0,0,0,0,0,5,
scooby_state_40f8cc|63|1 0,0,1,0,1,0,0,0,2,0,0,0,0,0,1,5,
scooby_state_40e28b|11|1 5,0,0,0,0,0,0,0,0,0,0,0,0,0,0,5,
scooby_state_40e28b|8|1 5,0,0,0,0,0,0,0,0,0,0,0,0,0,0,5,
scooby_state_40e28b|54|1 5,0,0,0,0,0,0,0,0,0,0,0,0,0,0,5,
scooby_state_40f8cc|15|0 1,0,0,2,2,0,0,0,0,0,0,0,0,0,0,5,
scooby_state_a4c443|52|0 0,0,0,1,1,0,0,0,0,0,0,0,0,0,3,5,
scooby_state_40e28b|9|1 5,0,0,0,0,0,0,0,0,0,0,0,0,0,0,5,
scooby_state_a5266d|36|1 0,3,0,0,1,0,0,0,0,0,0,0,0,0,1,5,
scooby_state_40f7c0|23|17 5,0,0,0,0,0,0,0,0,0,0,0,0,0,0,5,
scooby_state_a52672|5|1 2,0,0,0,0,1,0,0,0,1,1,0,0,0,0,5,
scooby_state_a4c443|51|1 1,1,0,1,0,0,0,0,0,0,0,0,0,0,2,5,
scooby_state_a52608|40|0 1,0,1,1,0,1,0,0,0,0,1,0,0,0,0,5,
scooby_state_40e28b|17|1 5,0,0,0,0,0,0,0,0,0,0,0,0,0,0,5,
scooby_state_a52608|42|0 3,1,0,0,0,0,0,0,0,0,0,0,1,0,0,5,
scooby_state_40e196|53|1 5,0,0,0,0,0,0,0,0,0,0,0,0,0,0,5,
scooby_state_a5266d|58|1 1,0,0,0,1,0,1,0,0,1,0,0,1,0,0,5,
scooby_state_40e28b|16|1 5,0,0,0,0,0,0,0,0,0,0,0,0,0,0,5,
scooby_state_40e28b|49|1 5,0,0,0,0,0,0,0,0,0,0,0,0,0,0,5,
scooby_state_a525ef|38|0 0,0,0,0,0,0,0,0,0,0,0,5,0,0,0,5,
scooby_state_a4c443|48|0 0,0,0,0,0,0,0,0,0,0,0,2,2,0,1,5,
scooby_state_a52608|38|0 0,1,0,1,0,0,0,0,1,0,1,0,0,0,1,5,
scooby_state_40e196|26|1 5,0,0,0,0,0,0,0,0,0,0,0,0,0,0,5,
scooby_state_40e28b|50|1 5,0,0,0,0,0,0,0,0,0,0,0,0,0,0,5,
scooby_state_40f7b0|52|1 0,0,5,0,0,0,0,0,0,0,0,0,0,0,0,5,
scooby_state_a5266d|37|1 0,0,0,1,0,0,0,0,1,0,2,0,0,1,0,5,
scooby_state_40f7b0|59|0 0,0,5,0,0,0,0,0,0,0,0,0,0,0,0,5,
scooby_state_a5266d|24|0 0,0,0,0,0,0,0,1,0,0,0,3,0,1,0,5,
scooby_state_a5266d|57|0 1,1,0,0,0,0,0,0,0,0,0,2,0,1,0,5,
scooby_state_a525fb|0|-1 0,0,0,1,1,1,0,0,0,2,0,0,0,0,0,5,
scooby_state_40f534|50|1 4,0,0,0,0,0,0,0,0,0,0,0,0,0,0,4,
scooby_state_a4c443|28|1 0,0,0,0,1,1,1,0,0,0,0,0,0,0,1,4,
scooby_state_a52608|36|0 0,0,0,1,1,0,0,0,0,0,1,0,0,1,0,4,
scooby_state_a5266d|59|0 0,0,0,0,0,1,0,0,0,0,0,1,0,0,2,4,
scooby_state_a52672|27|2 1,0,0,0,1,0,1,1,0,0,0,0,0,0,0,4,
scooby_state_40f7b0|54|1 0,0,4,0,0,0,0,0,0,0,0,0,0,0,0,4,
scooby_state_40f7b0|26|1 0,0,4,0,0,0,0,0,0,0,0,0,0,0,0,4,
scooby_state_a5266d|58|0 0,0,0,0,0,0,0,0,0,0,0,4,0,0,0,4,
scooby_state_40e28b|58|1 4,0,0,0,0,0,0,0,0,0,0,0,0,0,0,4,
scooby_state_40f7b0|57|5 0,0,4,0,0,0,0,0,0,0,0,0,0,0,0,4,
scooby_state_a52608|43|0 0,0,0,0,0,0,0,0,0,0,1,1,0,0,2,4,
scooby_state_a52672|25|1 0,0,1,0,0,0,0,0,0,2,0,0,0,0,1,4,
scooby_state_40f7b0|16|1 0,0,4,0,0,0,0,0,0,0,0,0,0,0,0,4,
scooby_state_a52672|59|1 0,0,0,0,0,0,0,1,0,2,0,0,0,0,1,4,
scooby_state_a5266d|31|1 2,1,0,1,0,0,0,0,0,0,0,0,0,0,0,4,
scooby_state_a525ef|4|0 0,0,0,0,0,0,0,0,0,0,0,4,0,0,0,4,
scooby_state_40e19d|3|1 3,0,0,0,0,0,0,0,0,0,0,1,0,0,0,4,
scooby_state_40e196|1|1 4,0,0,0,0,0,0,0,0,0,0,0,0,0,0,4,
scooby_state_a525fb|24|-1 0,0,1,0,0,0,0,1,0,0,0,0,0,0,2,4,
scooby_state_40f7b0|61|0 0,0,4,0,0,0,0,0,0,0,0,0,0,0,0,4,
scooby_state_a52672|54|2 0,0,0,0,0,0,1,0,1,0,0,2,0,0,0,4,
scooby_state_40f8cc|11|0 0,0,0,1,0,0,0,0,1,0,1,0,1,0,0,4,
scooby_state_a4c443|21|0 1,0,1,0,0,0,0,0,0,0,1,0,0,0,1,4,
scooby_state_40f7b0|38|1 0,0,4,0,0,0,0,0,0,0,0,0,0,0,0,4,
scooby_state_a52608|5|0 1,0,0,0,0,0,1,0,0,1,0,0,0,0,1,4,
scooby_state_a52672|3|1 0,0,1,0,0,0,1,0,0,1,0,0,1,0,0,4,
scooby_state_40f7b0|26|2 4,0,0,0,0,0,0,0,0,0,0,0,0,0,0,4,
scooby_state_40f7b0|49|2 4,0,0,0,0,0,0,0,0,0,0,0,0,0,0,4,
scooby_state_a52672|32|2 0,0,0,0,0,0,2,0,0,0,1,1,0,0,0,4,
scooby_state_40f8cc|55|0 2,0,0,0,1,0,0,0,0,0,0,1,0,0,0,4,
scooby_state_a52608|26|0 1,1,0,0,1,0,0,0,0,0,0,0,0,0,1,4,
scooby_state_40f89a|9|1 3,0,0,0,1,0,0,0,0,0,0,0,0,0,0,4,
scooby_state_a52672|50|0 0,1,0,0,1,0,0,0,0,0,1,1,0,0,0,4,
scooby_state_a4c443|22|1 1,1,0,0,0,0,0,0,0,0,0,0,1,1,0,4,
scooby_state_a52672|14|2 0,0,0,0,1,0,1,0,0,0,0,0,0,1,1,4,
scooby_state_a525fb|21|0 4,0,0,0,0,0,0,0,0,0,0,0,0,0,0,4,
scooby_state_40f7b0|47|0 0,0,4,0,0,0,0,0,0,0,0,0,0,0,0,4,
[...]
scooby_state_a525fb|3|-60 0,0,0,0,0,0,0,0,0,0,0,1,0,0,0,1,
scooby_state_40f7c0|52|19 1,0,0,0,0,0,0,0,0,0,0,0,0,0,0,1,
scooby_state_a5266d|42|4 0,0,0,0,0,1,0,0,0,0,0,0,0,0,0,1,
scooby_state_40f534|61|1 1,0,0,0,0,0,0,0,0,0,0,0,0,0,0,1,
scooby_state_40f7b0|37|10 0,0,1,0,0,0,0,0,0,0,0,0,0,0,0,1,
scooby_state_a5266d|62|8 0,0,0,1,0,0,0,0,0,0,0,0,0,0,0,1,
scooby_state_a5266d|56|18 0,0,0,0,0,0,0,0,0,0,1,0,0,0,0,1,
scooby_state_a5266d|63|55 1,0,0,0,0,0,0,0,0,0,0,0,0,0,0,1,
scooby_state_40f7b0|36|17 0,0,1,0,0,0,0,0,0,0,0,0,0,0,0,1,
scooby_state_40f7cb|61|0 0,1,0,0,0,0,0,0,0,0,0,0,0,0,0,1,
scooby_state_40f7c0|49|-3 1,0,0,0,0,0,0,0,0,0,0,0,0,0,0,1,
scooby_state_40f7c0|17|3 1,0,0,0,0,0,0,0,0,0,0,0,0,0,0,1,
scooby_state_40f7b0|9|5 0,0,1,0,0,0,0,0,0,0,0,0,0,0,0,1,
scooby_state_40f7b0|54|28 0,0,1,0,0,0,0,0,0,0,0,0,0,0,0,1,
scooby_state_a4c443|54|10 0,0,0,0,0,0,0,0,0,0,0,0,0,0,1,1,
scooby_state_40f7c0|59|33 1,0,0,0,0,0,0,0,0,0,0,0,0,0,0,1,
scooby_state_40f7b0|37|5 0,0,1,0,0,0,0,0,0,0,0,0,0,0,0,1,
scooby_state_40f7b0|32|11 0,0,1,0,0,0,0,0,0,0,0,0,0,0,0,1,
scooby_state_40f7c0|29|-1 1,0,0,0,0,0,0,0,0,0,0,0,0,0,0,1,
scooby_state_40f7c0|44|-4 1,0,0,0,0,0,0,0,0,0,0,0,0,0,0,1,
scooby_state_a52672|58|11 0,0,0,0,0,0,0,0,0,0,0,0,0,1,0,1,
scooby_state_a4c443|42|15 1,0,0,0,0,0,0,0,0,0,0,0,0,0,0,1,
scooby_state_40f7b0|20|8 0,0,1,0,0,0,0,0,0,0,0,0,0,0,0,1,
scooby_state_a52672|42|20 0,1,0,0,0,0,0,0,0,0,0,0,0,0,0,1,
scooby_state_40f7cb|2|0 0,1,0,0,0,0,0,0,0,0,0,0,0,0,0,1,
scooby_state_a5266d|59|25 1,0,0,0,0,0,0,0,0,0,0,0,0,0,0,1,
scooby_state_a52672|28|23 0,0,0,1,0,0,0,0,0,0,0,0,0,0,0,1,
scooby_state_a4c443|53|12 0,0,0,0,0,0,0,0,0,0,0,0,1,0,0,1,
scooby_state_a52672|12|5 0,1,0,0,0,0,0,0,0,0,0,0,0,0,0,1,
scooby_state_a52672|31|14 0,0,1,0,0,0,0,0,0,0,0,0,0,0,0,1,
scooby_state_40f7b0|22|6 1,0,0,0,0,0,0,0,0,0,0,0,0,0,0,1,
scooby_state_a4c443|40|9 0,0,0,1,0,0,0,0,0,0,0,0,0,0,0,1,
scooby_state_40f7b0|28|23 0,0,1,0,0,0,0,0,0,0,0,0,0,0,0,1,
scooby_state_40f7b0|30|2 1,0,0,0,0,0,0,0,0,0,0,0,0,0,0,1,
scooby_state_a5266d|20|8 1,0,0,0,0,0,0,0,0,0,0,0,0,0,0,1,
scooby_state_a4c443|23|3 0,0,0,0,0,0,0,0,1,0,0,0,0,0,0,1,
scooby_state_40f7cb|3|0 0,1,0,0,0,0,0,0,0,0,0,0,0,0,0,1,
scooby_state_a52672|52|17 1,0,0,0,0,0,0,0,0,0,0,0,0,0,0,1,
scooby_state_40f7b0|63|15 1,0,0,0,0,0,0,0,0,0,0,0,0,0,0,1,
scooby_state_40f7c0|60|25 1,0,0,0,0,0,0,0,0,0,0,0,0,0,0,1,
scooby_state_40f7c0|32|9 1,0,0,0,0,0,0,0,0,0,0,0,0,0,0,1,
scooby_state_a4c443|59|9 0,0,1,0,0,0,0,0,0,0,0,0,0,0,0,1,
scooby_state_a5266d|14|7 1,0,0,0,0,0,0,0,0,0,0,0,0,0,0,1,
scooby_state_40f7b0|63|16 0,0,1,0,0,0,0,0,0,0,0,0,0,0,0,1,
scooby_state_a5266d|63|50 0,0,0,0,0,0,0,0,0,0,1,0,0,0,0,1,
scooby_state_a52672|43|37 1,0,0,0,0,0,0,0,0,0,0,0,0,0,0,1,
scooby_state_40f7b0|61|12 0,0,1,0,0,0,0,0,0,0,0,0,0,0,0,1,
scooby_state_a52672|56|54 1,0,0,0,0,0,0,0,0,0,0,0,0,0,0,1,
scooby_state_a52672|41|-10 0,0,1,0,0,0,0,0,0,0,0,0,0,0,0,1,
scooby_state_a52672|60|2 0,0,0,0,0,0,0,0,0,0,0,0,0,0,1,1,
scooby_state_a4c443|61|12 0,0,0,0,0,0,0,0,1,0,0,0,0,0,0,1,
scooby_state_40f7b0|59|21 0,1,0,0,0,0,0,0,0,0,0,0,0,0,0,1,
scooby_state_a525ef|35|1 0,0,0,0,0,0,0,0,0,0,0,1,0,0,0,1,
scooby_state_40f7c0|28|8 1,0,0,0,0,0,0,0,0,0,0,0,0,0,0,1,
scooby_state_a515c4|23|1 1,0,0,0,0,0,0,0,0,0,0,0,0,0,0,1,
scooby_state_a4c443|15|8 0,1,0,0,0,0,0,0,0,0,0,0,0,0,0,1,
scooby_state_40f7c0|38|-8 1,0,0,0,0,0,0,0,0,0,0,0,0,0,0,1,
scooby_state_a52672|58|54 1,0,0,0,0,0,0,0,0,0,0,0,0,0,0,1,
scooby_state_a5266d|6|4 0,0,0,0,0,0,0,0,0,0,1,0,0,0,0,1,
scooby_state_40f7c0|24|13 1,0,0,0,0,0,0,0,0,0,0,0,0,0,0,1,
scooby_state_a4c443|37|2 0,1,0,0,0,0,0,0,0,0,0,0,0,0,0,1,
scooby_state_a4c443|35|9 0,0,0,0,0,0,0,0,1,0,0,0,0,0,0,1,
scooby_state_a51370|13|0 1,0,0,0,0,0,0,0,0,0,0,0,0,0,0,1,
scooby_state_a52672|63|11 0,0,0,0,0,0,0,1,0,0,0,0,0,0,0,1,
scooby_state_a52672|31|9 0,0,0,0,1,0,0,0,0,0,0,0,0,0,0,1,
scooby_state_40f7c0|55|-2 1,0,0,0,0,0,0,0,0,0,0,0,0,0,0,1,
scooby_state_a5266d|23|17 0,0,0,0,0,0,0,0,1,0,0,0,0,0,0,1,
scooby_state_40f89a|27|1 0,0,0,0,0,0,0,0,0,0,0,0,0,0,1,1,
scooby_state_40f7c0|42|-2 1,0,0,0,0,0,0,0,0,0,0,0,0,0,0,1,
scooby_state_a525fb|7|-1 0,1,0,0,0,0,0,0,0,0,0,0,0,0,0,1,
scooby_state_40f7b0|37|27 0,0,1,0,0,0,0,0,0,0,0,0,0,0,0,1,
scooby_state_40f7b0|47|9 0,0,1,0,0,0,0,0,0,0,0,0,0,0,0,1,
scooby_state_40f7c0|40|4 1,0,0,0,0,0,0,0,0,0,0,0,0,0,0,1,
scooby_state_40f7b0|33|8 0,0,1,0,0,0,0,0,0,0,0,0,0,0,0,1,
scooby_state_40f7b0|47|34 0,0,1,0,0,0,0,0,0,0,0,0,0,0,0,1,
scooby_state_a5266d|13|5 0,0,1,0,0,0,0,0,0,0,0,0,0,0,0,1,
scooby_state_40f7b0|41|8 1,0,0,0,0,0,0,0,0,0,0,0,0,0,0,1,
scooby_state_a52672|44|6 0,0,0,0,0,0,0,0,0,0,0,0,1,0,0,1,
scooby_state_40e1ac|45|1 1,0,0,0,0,0,0,0,0,0,0,0,0,0,0,1,
scooby_state_a525fb|28|0 1,0,0,0,0,0,0,0,0,0,0,0,0,0,0,1,
scooby_state_40f7b0|31|9 0,0,1,0,0,0,0,0,0,0,0,0,0,0,0,1,
scooby_state_a4c443|63|2 0,0,0,0,0,0,0,0,1,0,0,0,0,0,0,1,
scooby_state_a52672|23|-11 0,0,0,0,0,0,0,0,0,1,0,0,0,0,0,1,
scooby_state_a52672|57|53 0,0,0,0,0,0,1,0,0,0,0,0,0,0,0,1,
scooby_state_40f7c0|22|6 1,0,0,0,0,0,0,0,0,0,0,0,0,0,0,1,
scooby_state_40f7c0|22|19 1,0,0,0,0,0,0,0,0,0,0,0,0,0,0,1,
scooby_state_a5266d|22|6 0,0,0,1,0,0,0,0,0,0,0,0,0,0,0,1,
scooby_state_40f89a|43|25 1,0,0,0,0,0,0,0,0,0,0,0,0,0,0,1,
scooby_state_a5266d|61|32 0,0,0,0,1,0,0,0,0,0,0,0,0,0,0,1,
scooby_state_a5266d|23|8 0,0,0,0,0,1,0,0,0,0,0,0,0,0,0,1,
scooby_state_40f8cc|5|1 0,0,0,0,0,0,0,0,0,0,0,0,0,0,1,1,
scooby_state_40f7c0|10|-13 1,0,0,0,0,0,0,0,0,0,0,0,0,0,0,1,
scooby_state_40f7c0|42|20 1,0,0,0,0,0,0,0,0,0,0,0,0,0,0,1,
scooby_state_40f7b0|57|-1 0,0,1,0,0,0,0,0,0,0,0,0,0,0,0,1,
scooby_state_40e3ac|21|1 0,0,0,0,0,0,0,0,0,0,0,1,0,0,0,1,
scooby_state_a5266d|38|30 0,0,0,0,0,0,0,0,0,0,0,0,0,0,1,1,
scooby_state_a4c443|24|6 0,0,0,0,0,0,0,0,0,0,0,0,0,0,1,1,
scooby_state_40e3a6|58|6 1,0,0,0,0,0,0,0,0,0,0,0,0,0,0,1,
scooby_state_40f7b0|11|2 1,0,0,0,0,0,0,0,0,0,0,0,0,0,0,1,
scooby_state_40f7c0|53|18 1,0,0,0,0,0,0,0,0,0,0,0,0,0,0,1,
scooby_state_40f7b0|21|20 0,0,1,0,0,0,0,0,0,0,0,0,0,0,0,1,
scooby_state_a5266d|17|6 0,0,0,0,0,0,0,0,0,0,0,1,0,0,0,1,
scooby_state_a5266d|48|16 1,0,0,0,0,0,0,0,0,0,0,0,0,0,0,1,
scooby_state_a525fb|10|-1 0,1,0,0,0,0,0,0,0,0,0,0,0,0,0,1,
scooby_state_40f7b0|60|27 0,0,1,0,0,0,0,0,0,0,0,0,0,0,0,1,
scooby_state_a52421|49|0 1,0,0,0,0,0,0,0,0,0,0,0,0,0,0,1,
scooby_state_40f7b0|23|22 0,0,1,0,0,0,0,0,0,0,0,0,0,0,0,1,
scooby_state_40f7c0|62|21 1,0,0,0,0,0,0,0,0,0,0,0,0,0,0,1,
scooby_state_40f7b0|41|20 0,0,1,0,0,0,0,0,0,0,0,0,0,0,0,1,
scooby_state_a52672|44|2 0,0,0,0,0,0,1,0,0,0,0,0,0,0,0,1,
scooby_state_40f7c0|0|-57 1,0,0,0,0,0,0,0,0,0,0,0,0,0,0,1,
scooby_state_40f7b0|4|2 1,0,0,0,0,0,0,0,0,0,0,0,0,0,0,1,
scooby_state_a52608|16|0 0,0,0,1,0,0,0,0,0,0,0,0,0,0,0,1,
scooby_state_40f7b0|41|7 0,0,1,0,0,0,0,0,0,0,0,0,0,0,0,1,
scooby_state_40f7b0|46|7 0,0,1,0,0,0,0,0,0,0,0,0,0,0,0,1,
scooby_state_a52672|55|8 0,1,0,0,0,0,0,0,0,0,0,0,0,0,0,1,
scooby_state_a52672|36|4 0,1,0,0,0,0,0,0,0,0,0,0,0,0,0,1,
scooby_state_a5266d|52|9 0,0,1,0,0,0,0,0,0,0,0,0,0,0,0,1,
scooby_state_a52672|28|11 0,0,0,0,0,0,0,0,0,0,0,0,0,0,1,1,
scooby_state_40d199|63|2 1,0,0,0,0,0,0,0,0,0,0,0,0,0,0,1,
scooby_state_40f7c0|0|-37 1,0,0,0,0,0,0,0,0,0,0,0,0,0,0,1,
scooby_state_a52672|17|9 0,0,0,0,0,0,0,0,0,0,0,0,0,1,0,1,
scooby_state_40f8cc|44|1 0,0,0,0,0,1,0,0,0,0,0,0,0,0,0,1,
scooby_state_40f7b0|43|39 0,0,1,0,0,0,0,0,0,0,0,0,0,0,0,1,
scooby_state_a525ef|31|0 0,0,0,0,0,0,0,0,0,0,0,1,0,0,0,1,
scooby_state_40f7b0|44|30 0,0,1,0,0,0,0,0,0,0,0,0,0,0,0,1,
scooby_state_40f7b0|47|18 0,0,1,0,0,0,0,0,0,0,0,0,0,0,0,1,
scooby_state_40f7b0|7|7 0,0,1,0,0,0,0,0,0,0,0,0,0,0,0,1,
scooby_state_a52672|0|-4 0,0,0,1,0,0,0,0,0,0,0,0,0,0,0,1,
scooby_state_40f7c0|59|5 1,0,0,0,0,0,0,0,0,0,0,0,0,0,0,1,
scooby_state_a525ef|8|0 1,0,0,0,0,0,0,0,0,0,0,0,0,0,0,1,
scooby_state_40f7b0|9|6 1,0,0,0,0,0,0,0,0,0,0,0,0,0,0,1,
scooby_state_a52672|17|5 0,1,0,0,0,0,0,0,0,0,0,0,0,0,0,1,
scooby_state_40f7b0|23|4 0,0,1,0,0,0,0,0,0,0,0,0,0,0,0,1,
scooby_state_a52672|1|-33 0,0,1,0,0,0,0,0,0,0,0,0,0,0,0,1,
scooby_state_a52672|42|1 0,0,0,0,0,0,0,0,1,0,0,0,0,0,0,1,
scooby_state_40f89a|40|13 1,0,0,0,0,0,0,0,0,0,0,0,0,0,0,1,
scooby_state_40f7c0|44|16 1,0,0,0,0,0,0,0,0,0,0,0,0,0,0,1,
scooby_state_40f7c0|34|17 1,0,0,0,0,0,0,0,0,0,0,0,0,0,0,1,
scooby_state_a525fb|0|0 1,0,0,0,0,0,0,0,0,0,0,0,0,0,0,1,
scooby_state_a4c443|42|18 1,0,0,0,0,0,0,0,0,0,0,0,0,0,0,1,
scooby_state_a52672|35|2 0,0,0,0,0,0,0,0,0,0,0,0,0,0,1,1,
scooby_state_40f7b0|43|10 0,0,1,0,0,0,0,0,0,0,0,0,0,0,0,1,
scooby_state_40f74b|2|1 1,0,0,0,0,0,0,0,0,0,0,0,0,0,0,1,
scooby_state_40f7c0|3|-15 1,0,0,0,0,0,0,0,0,0,0,0,0,0,0,1,
scooby_state_a52672|22|8 0,0,0,0,0,0,0,0,0,0,1,0,0,0,0,1,
scooby_state_a5266d|31|10 1,0,0,0,0,0,0,0,0,0,0,0,0,0,0,1,
scooby_state_40f7c0|54|30 1,0,0,0,0,0,0,0,0,0,0,0,0,0,0,1,
scooby_state_a52672|22|1 0,0,0,0,0,0,0,0,0,1,0,0,0,0,0,1,
scooby_state_40f7b0|1|1 0,0,1,0,0,0,0,0,0,0,0,0,0,0,0,1,
scooby_state_a52672|28|3 1,0,0,0,0,0,0,0,0,0,0,0,0,0,0,1,
scooby_state_a525ef|5|1 0,0,0,0,0,0,0,0,0,0,0,1,0,0,0,1,
scooby_state_40f7b0|13|4 0,0,1,0,0,0,0,0,0,0,0,0,0,0,0,1,
scooby_state_40f7c0|61|-1 1,0,0,0,0,0,0,0,0,0,0,0,0,0,0,1,
scooby_state_40f7b0|28|17 0,0,1,0,0,0,0,0,0,0,0,0,0,0,0,1,
scooby_state_a4c443|61|35 0,1,0,0,0,0,0,0,0,0,0,0,0,0,0,1,
scooby_state_40f7b0|27|20 0,0,1,0,0,0,0,0,0,0,0,0,0,0,0,1,
scooby_state_a5266d|33|5 0,0,0,0,0,0,0,0,0,1,0,0,0,0,0,1,
scooby_state_a4c443|26|9 0,0,1,0,0,0,0,0,0,0,0,0,0,0,0,1,
scooby_state_40f7b0|43|19 0,0,1,0,0,0,0,0,0,0,0,0,0,0,0,1,
scooby_state_a52672|48|2 1,0,0,0,0,0,0,0,0,0,0,0,0,0,0,1,
scooby_state_a5266d|53|33 0,0,1,0,0,0,0,0,0,0,0,0,0,0,0,1,
scooby_state_a4c443|63|20 0,0,0,0,0,0,0,0,0,0,0,1,0,0,0,1,
scooby_state_a52672|32|4 0,1,0,0,0,0,0,0,0,0,0,0,0,0,0,1,
scooby_state_a52672|18|6 0,0,0,0,0,0,0,0,0,0,0,0,0,0,1,1,
scooby_state_a4c443|25|2 0,1,0,0,0,0,0,0,0,0,0,0,0,0,0,1,
scooby_state_a52672|56|7 1,0,0,0,0,0,0,0,0,0,0,0,0,0,0,1,
scooby_state_40f7c0|51|33 1,0,0,0,0,0,0,0,0,0,0,0,0,0,0,1,
scooby_state_40f534|42|1 1,0,0,0,0,0,0,0,0,0,0,0,0,0,0,1,
scooby_state_40f7c0|25|6 1,0,0,0,0,0,0,0,0,0,0,0,0,0,0,1,
scooby_state_a52672|52|19 0,0,0,0,0,0,0,0,0,1,0,0,0,0,0,1,
scooby_state_40f7b0|56|13 0,1,0,0,0,0,0,0,0,0,0,0,0,0,0,1,
scooby_state_40f7cb|58|2 0,1,0,0,0,0,0,0,0,0,0,0,0,0,0,1,
scooby_state_40f7b0|31|8 0,0,1,0,0,0,0,0,0,0,0,0,0,0,0,1,
scooby_state_40f89a|15|1 1,0,0,0,0,0,0,0,0,0,0,0,0,0,0,1,
scooby_state_40f7b0|47|21 0,1,0,0,0,0,0,0,0,0,0,0,0,0,0,1,
scooby_state_a52672|24|6 0,0,0,0,0,0,0,0,0,0,0,0,1,0,0,1,
scooby_state_a52672|60|4 0,1,0,0,0,0,0,0,0,0,0,0,0,0,0,1,
scooby_state_40f7b0|41|6 1,0,0,0,0,0,0,0,0,0,0,0,0,0,0,1,
scooby_state_a52672|15|4 0,1,0,0,0,0,0,0,0,0,0,0,0,0,0,1,
scooby_state_40f7c0|21|15 1,0,0,0,0,0,0,0,0,0,0,0,0,0,0,1,
scooby_state_a5266d|47|14 1,0,0,0,0,0,0,0,0,0,0,0,0,0,0,1,
scooby_state_a4c443|8|4 1,0,0,0,0,0,0,0,0,0,0,0,0,0,0,1,
scooby_state_40f7b0|58|2 1,0,0,0,0,0,0,0,0,0,0,0,0,0,0,1,
scooby_state_40f7b0|31|29 0,0,1,0,0,0,0,0,0,0,0,0,0,0,0,1,
scooby_state_40f7c0|25|4 1,0,0,0,0,0,0,0,0,0,0,0,0,0,0,1,
scooby_state_40f7b0|20|-1 0,0,1,0,0,0,0,0,0,0,0,0,0,0,0,1,
scooby_state_40f7b0|26|4 0,0,1,0,0,0,0,0,0,0,0,0,0,0,0,1,
scooby_state_a525fb|21|-42 0,1,0,0,0,0,0,0,0,0,0,0,0,0,0,1,
scooby_state_40f7b0|42|0 0,0,1,0,0,0,0,0,0,0,0,0,0,0,0,1,
scooby_state_a4c443|56|3 0,0,0,0,0,0,1,0,0,0,0,0,0,0,0,1,
scooby_state_a4c443|41|7 1,0,0,0,0,0,0,0,0,0,0,0,0,0,0,1,
scooby_state_40f7b0|57|0 0,0,1,0,0,0,0,0,0,0,0,0,0,0,0,1,
scooby_state_a5266d|29|24 0,0,1,0,0,0,0,0,0,0,0,0,0,0,0,1,
scooby_state_a52608|7|0 0,0,0,0,0,0,0,0,0,0,0,0,1,0,0,1,
scooby_state_a5266d|40|16 0,0,0,0,0,0,0,0,0,0,0,0,0,1,0,1,
scooby_state_40f7c0|31|6 1,0,0,0,0,0,0,0,0,0,0,0,0,0,0,1,
scooby_state_a52672|31|4 0,1,0,0,0,0,0,0,0,0,0,0,0,0,0,1,
scooby_state_40f7c0|32|-5 1,0,0,0,0,0,0,0,0,0,0,0,0,0,0,1,
scooby_state_a4c443|23|15 1,0,0,0,0,0,0,0,0,0,0,0,0,0,0,1,
scooby_state_a4c443|60|19 0,0,0,0,0,0,0,0,0,0,0,0,0,0,1,1,
scooby_state_a4c443|3|3 0,0,0,0,1,0,0,0,0,0,0,0,0,0,0,1,
scooby_state_40e1ac|41|1 1,0,0,0,0,0,0,0,0,0,0,0,0,0,0,1,
scooby_state_40f7b0|31|1 0,0,1,0,0,0,0,0,0,0,0,0,0,0,0,1,
scooby_state_40f7c0|36|11 1,0,0,0,0,0,0,0,0,0,0,0,0,0,0,1,
scooby_state_a5266d|6|3 0,0,0,0,0,0,0,0,0,0,0,0,1,0,0,1,
scooby_state_a52672|24|12 0,0,1,0,0,0,0,0,0,0,0,0,0,0,0,1,
scooby_state_a4c443|41|41 0,0,1,0,0,0,0,0,0,0,0,0,0,0,0,1,
scooby_state_a52672|16|5 0,1,0,0,0,0,0,0,0,0,0,0,0,0,0,1,
scooby_state_40f7c0|50|8 1,0,0,0,0,0,0,0,0,0,0,0,0,0,0,1,
scooby_state_a52672|45|4 0,0,1,0,0,0,0,0,0,0,0,0,0,0,0,1,
scooby_state_40f7b0|36|6 1,0,0,0,0,0,0,0,0,0,0,0,0,0,0,1,
scooby_state_40f7b0|30|30 0,0,1,0,0,0,0,0,0,0,0,0,0,0,0,1,
scooby_state_40f89a|58|14 1,0,0,0,0,0,0,0,0,0,0,0,0,0,0,1,
scooby_state_40f7b0|50|18 0,0,1,0,0,0,0,0,0,0,0,0,0,0,0,1,
scooby_state_40f7b0|47|10 0,0,1,0,0,0,0,0,0,0,0,0,0,0,0,1,
scooby_state_40f7c0|49|4 1,0,0,0,0,0,0,0,0,0,0,0,0,0,0,1,
scooby_state_40f7cb|39|2 0,1,0,0,0,0,0,0,0,0,0,0,0,0,0,1,
scooby_state_40f7c0|48|-1 1,0,0,0,0,0,0,0,0,0,0,0,0,0,0,1,
scooby_state_40f7b0|37|9 0,0,1,0,0,0,0,0,0,0,0,0,0,0,0,1,

scooby_action_0_deg_dist 0,1706,0,0,0,0,0,0,0,0,0,0,0,0,0,0,
scooby_action_-6_deg_dist 0,488,0,0,0,0,0,0,0,0,0,0,0,0,0,0,
scooby_action_4_deg_dist 0,1427,130,0,98,0,14,0,0,0,0,0,0,0,0,0,
scooby_action_1_deg_dist 0,50647,27448,0,66779,0,620850,0,0,0,0,0,0,0,0,0,
scooby_action_30_deg_dist 0,498,0,0,0,0,0,0,0,0,0,0,0,0,0,0,
scooby_action_3_deg_dist 0,14039,6,0,4,0,0,0,0,0,0,0,0,0,0,0,
scooby_action_32_deg_dist 0,440,0,0,0,0,0,0,0,0,0,0,0,0,0,0,
scooby_action_5_deg_dist 0,512,0,0,0,0,0,0,0,0,0,0,0,0,0,0,
scooby_action_10_deg_dist 0,517,0,0,0,0,0,0,0,0,0,0,0,0,0,0,
scooby_action_-1_deg_dist 0,3678,40,0,29,0,1,0,0,0,0,0,0,0,0,0,
scooby_action_23_deg_dist 0,466,0,0,0,0,0,0,0,0,0,0,0,0,0,0,
scooby_action_11_deg_dist 0,498,0,0,0,0,0,0,0,0,0,0,0,0,0,0,
scooby_action_12_deg_dist 0,518,0,0,0,0,0,0,0,0,0,0,0,0,0,0,
scooby_action_22_deg_dist 0,472,0,0,0,0,0,0,0,0,0,0,0,0,0,0,
scooby_action_-3_deg_dist 0,511,0,0,0,0,0,0,0,0,0,0,0,0,0,0,

scooby_track_called 791816
scooby_track_same_address 6114
scooby_track_evict 785446

scooby_reward_demand_called 791816
scooby_reward_demand_pt_not_found 47027
scooby_reward_demand_pt_found 744789
scooby_reward_demand_pt_found_total 744789
scooby_reward_demand_has_reward 0
scooby_reward_train_called 26520
scooby_reward_assign_reward_called 785691
scooby_reward_no_pref 1706
scooby_reward_incorrect 24814
scooby_reward_correct_untimely 653077
scooby_reward_correct_timely 91712
scooby_reward_out_of_bounds 14382
scooby_reward_tracker_hit 0

scooby_reward_none_low_bw 1706
scooby_reward_none_high_bw 0
scooby_reward_incorrect_low_bw 24814
scooby_reward_incorrect_high_bw 0
scooby_reward_correct_untimely_low_bw 653077
scooby_reward_correct_untimely_high_bw 0
scooby_reward_correct_timely_low_bw 91712
scooby_reward_correct_timely_high_bw 0
scooby_reward_out_of_bounds_low_bw 14382
scooby_reward_out_of_bounds_high_bw 0
scooby_reward_tracker_hit_low_bw 0
scooby_reward_tracker_hit_high_bw 0

scooby_reward_1 0,10421,650278,88541,11853,0,
scooby_reward_3 0,8647,1435,2563,1393,0,
scooby_reward_4 0,1461,37,77,90,0,
scooby_reward_5 0,381,6,81,42,0,
scooby_reward_10 0,366,1,87,63,0,
scooby_reward_11 0,351,0,65,82,0,
scooby_reward_12 0,359,0,80,79,0,
scooby_reward_22 0,259,0,65,148,0,
scooby_reward_23 0,254,0,52,160,0,
scooby_reward_30 0,246,0,47,205,0,
scooby_reward_32 0,210,0,42,188,0,
scooby_reward_-1 0,1071,1320,12,16,0,
scooby_reward_-3 0,404,0,0,24,0,
scooby_reward_-6 0,384,0,0,39,0,
scooby_reward_0 1706,0,0,0,0,0,

scooby_train_called 785445
scooby_train_compute_reward 26520

scooby_register_fill_called 713982
scooby_register_fill_set 99737
scooby_register_fill_set_total 99737

scooby_register_prefetch_hit_called 1478920
scooby_register_prefetch_hit_set 636477
scooby_register_prefetch_hit_set_total 636477

scooby_pref_issue_scooby 3851833

learning_engine_featurewise.action.called 791816
learning_engine_featurewise.action.explore 1446
learning_engine_featurewise.action.exploit 790370
learning_engine_featurewise.action.fallback 1845
learning_engine_featurewise.action.dyn_fallback_saved_bw 0
learning_engine_featurewise.action.dyn_fallback_saved_bw_acc 363
learning_engine_featurewise.action.index_1_explored 93
learning_engine_featurewise.action.index_1_exploited 765631
learning_engine_featurewise.action.index_3_explored 103
learning_engine_featurewise.action.index_3_exploited 13946
learning_engine_featurewise.action.index_4_explored 96
learning_engine_featurewise.action.index_4_exploited 1573
learning_engine_featurewise.action.index_5_explored 99
learning_engine_featurewise.action.index_5_exploited 413
learning_engine_featurewise.action.index_10_explored 109
learning_engine_featurewise.action.index_10_exploited 408
learning_engine_featurewise.action.index_11_explored 90
learning_engine_featurewise.action.index_11_exploited 408
learning_engine_featurewise.action.index_12_explored 104
learning_engine_featurewise.action.index_12_exploited 414
learning_engine_featurewise.action.index_22_explored 100
learning_engine_featurewise.action.index_22_exploited 372
learning_engine_featurewise.action.index_23_explored 96
learning_engine_featurewise.action.index_23_exploited 370
learning_engine_featurewise.action.index_30_explored 107
learning_engine_featurewise.action.index_30_exploited 391
learning_engine_featurewise.action.index_32_explored 80
learning_engine_featurewise.action.index_32_exploited 360
learning_engine_featurewise.action.index_-1_explored 98
learning_engine_featurewise.action.index_-1_exploited 3650
learning_engine_featurewise.action.index_-3_explored 96
learning_engine_featurewise.action.index_-3_exploited 415
learning_engine_featurewise.action.index_-6_explored 81
learning_engine_featurewise.action.index_-6_exploited 407
learning_engine_featurewise.action.index_0_explored 94
learning_engine_featurewise.action.index_0_exploited 1612
learning_engine_featurewise.learn.called 785445
learning_engine_featurewise.learn.su_skip_PC 0
learning_engine_featurewise.learn.su_skip_PC_Delta 0

learning_engine_featurewise.q_value_histogram.bucket_0 0
learning_engine_featurewise.q_value_histogram.bucket_1 0
learning_engine_featurewise.q_value_histogram.bucket_2 3806
learning_engine_featurewise.q_value_histogram.bucket_3 5476
learning_engine_featurewise.q_value_histogram.bucket_4 5011
learning_engine_featurewise.q_value_histogram.bucket_5 13231
learning_engine_featurewise.q_value_histogram.bucket_6 762846
learning_engine_featurewise.q_value_histogram.bucket_7 0

learning_engine_featurewise.consensus.total 790370
learning_engine_featurewise.consensus.feature_align_PC 779093
learning_engine_featurewise.consensus.feature_align_PC_ratio 0.99
learning_engine_featurewise.consensus.feature_align_PC_Delta 788041
learning_engine_featurewise.consensus.feature_align_PC_Delta_ratio 1.00
learning_engine_featurewise.consensus.feature_align_all 776764
learning_engine_featurewise.consensus.feature_align_all_ratio 0.98

learning_engine_featurewise.feature_PC_min_weight 1000000.00000000
learning_engine_featurewise.feature_PC_max_weight 0.00000000
learning_engine_featurewise.feature_PC_Delta_min_weight 1000000.00000000
learning_engine_featurewise.feature_PC_Delta_max_weight 0.00000000
unique_pcs 117
unique_pages 15049
unique_trigger_pcs 49
total_bitmaps_seen 0
unique_bitmaps_seen 0

scooby_bw_epochs 125332
scooby_bw_level_0 11099
scooby_bw_level_1 36226
scooby_bw_level_2 43541
scooby_bw_level_3 34466

scooby_ipc_epochs 0
scooby_ipc_level_0 0
scooby_ipc_level_1 0
scooby_ipc_level_2 0
scooby_ipc_level_3 0

scooby_cache_acc_epochs 29992
scooby_cache_acc_level_0 39
scooby_cache_acc_level_1 6
scooby_cache_acc_level_2 34
scooby_cache_acc_level_3 134
scooby_cache_acc_level_4 370
scooby_cache_acc_level_5 472
scooby_cache_acc_level_6 610
scooby_cache_acc_level_7 1045
scooby_cache_acc_level_8 2309
scooby_cache_acc_level_9 24973

Channel_0_RQ_row_buffer_hit 670930
Channel_0_RQ_row_buffer_miss 38207
Channel_0_WQ_row_buffer_hit 2
Channel_0_WQ_row_buffer_miss 29
Channel_0_WQ_full 0
Channel_0_dbus_congested 107104

avg_congested_cycle 9

DRAM_bw_pochs 125332
DRAM_bw_level_0 11099
DRAM_bw_level_1 36226
DRAM_bw_level_2 43541
DRAM_bw_level_3 34466
