Original cmd-> /cluster/home/vlnitu/CA-Lab4-24-vlnitu/Pythia/bin/perceptron-no-multi-no-ship-1core --warmup_instructions=1000000 --simulation_instructions=10000000 --l2c_prefetcher_types=scooby --config=/cluster/home/vlnitu/CA-Lab4-24-vlnitu/Pythia/config/pythia.ini --mail-type=BEGIN,END  -traces /cluster/home/vlnitu/CA-Lab4-24-vlnitu/Pythia/traces/603.bwaves_s-1740B.champsimtrace.xz
*************************************************
   ChampSim Multicore Out-of-Order Simulator
   Last compiled: Nov 19 2024 20:10:11
*************************************************
parsing config file: /cluster/home/vlnitu/CA-Lab4-24-vlnitu/Pythia/config/pythia.ini
unable to parse section: , name: mail-type, value: BEGIN,END

trace_0 /cluster/home/vlnitu/CA-Lab4-24-vlnitu/Pythia/traces/603.bwaves_s-1740B.champsimtrace.xz
adding L2C_PREFETCHER: Scooby
Initialize SHIP state
warmup_instructions 1000000
simulation_instructions 10000000
champsim_seed 270
measure_ipc 0
measure_ipc_epoch 1000
measure_dram_bw 1
measure_dram_bw_epoch 256
measure_cache_acc 1
measure_cache_acc_epoch 1024
l1d_perfect 0
l2c_perfect 0
llc_perfect 0
l1d_semi_perfect 0
l2c_semi_perfect 0
llc_semi_perfect 0
semi_perfect_cache_page_buffer_size 64

num_cpus 1
cpu_freq 4000
dram_io_freq 2400
page_size 4096
block_size 64
max_read_per_cycle 8
max_fill_per_cycle 1
dram_channels 1
log2_dram_channels 0
dram_ranks 1
dram_banks 8
dram_rows 65536
dram_columns 128
dram_row_size 8
dram_size 4096
dram_pages 1048576

fetch_width 6
decode_width 6
exec_width 4
lq_width 2
sq_width 2
retire_width 4
scheduler_size 128
branch_mispredict_penalty 20
rob_size 256
lq_size 72
sq_size 56
num_instr_destinations_sparc 4
num_instr_destinations 2
num_instr_sources 4

itlb_set 16
itlb_way 8
itlb_rq_size 16
itlb_wq_size 16
itlb_pq_size 0
itlb_mshr_size 8
itlb_latency 1

dtlb_set 16
dtlb_way 4
dtlb_rq_size 16
dtlb_wq_size 16
dtlb_pq_size 0
dtlb_mshr_size 8
dtlb_latency 1

stlb_set 128
stlb_way 12
stlb_rq_size 32
stlb_wq_size 32
stlb_pq_size 0
stlb_mshr_size 16
stlb_latency 8

l1i_size 32
l1i_set 64
l1i_way 8
l1i_rq_size 64
l1i_wq_size 64
l1i_pq_size 8
l1i_mshr_size 8
l1i_latency 1

l1d_size 32
l1d_set 64
l1d_way 8
l1d_rq_size 64
l1d_wq_size 64
l1d_pq_size 8
l1d_mshr_size 16
l1d_latency 4

l2c_size 256
l2c_set 512
l2c_way 8
l2c_rq_size 32
l2c_wq_size 32
l2c_pq_size 32
l2c_mshr_size 32
l2c_latency 10

llc_size 2048
llc_set 2048
llc_way 16
llc_rq_size 32
llc_wq_size 32
llc_pq_size 32
llc_mshr_size 64
llc_latency 20

dram_channel_width 8
dram_wq_size 64
dram_rq_size 64
tRP 15
tRCD 15
tCAS 12.5
dram_dbus_turn_around_time 30
dram_write_high_wm 56
dram_write_low_wm 48
min_dram_writes_per_switch 16
dram_mtps 2400
dram_dbus_return_time 13

scooby_alpha 0.0065088
scooby_gamma 0.556301
scooby_epsilon 0.00182284
scooby_state_num_bits 10
scooby_max_states 1024
scooby_seed 200
scooby_policy EGreedy
scooby_learning_type SARSA
scooby_actions 1,3,4,5,10,11,12,22,23,30,32,-1,-3,-6,0,
scooby_max_actions 15
scooby_pt_size 256
scooby_st_size 64
scooby_max_pcs 5
scooby_max_offsets 5
scooby_max_deltas 5
scooby_reward_none -4
scooby_reward_incorrect -8
scooby_reward_correct_untimely 12
scooby_reward_correct_timely 20
scooby_brain_zero_init 0
scooby_enable_reward_all 0
scooby_enable_track_multiple 0
scooby_enable_reward_out_of_bounds 1
scooby_reward_out_of_bounds -12
scooby_state_type 1
scooby_state_hash_type 11
scooby_access_debug 0
scooby_print_access_debug 0
scooby_print_access_debug_pc deadbeef
scooby_print_access_debug_pc_count 0
scooby_print_trace 0
scooby_enable_state_action_stats 1
scooby_enable_reward_tracker_hit 0
scooby_reward_tracker_hit -2
scooby_enable_featurewise_engine 1
scooby_pref_degree 1
scooby_enable_dyn_degree 1
scooby_max_to_avg_q_thresholds 0.5,1,2,
scooby_dyn_degrees 1,2,4,4,
scooby_multi_deg_select_type 2
scooby_last_pref_offset_conf_thresholds 1,3,8,
scooby_dyn_degrees_type2 1,2,4,6,
scooby_action_tracker_size 2
scooby_high_bw_thresh 4
scooby_enable_hbw_reward 1
scooby_reward_hbw_correct_timely 20
scooby_reward_hbw_correct_untimely 12
scooby_reward_hbw_incorrect -14
scooby_reward_hbw_none -2
scooby_reward_hbw_out_of_bounds -12
scooby_reward_hbw_tracker_hit -2
scooby_last_pref_offset_conf_thresholds_hbw 1,3,8,
scooby_dyn_degrees_type2_hbw 1,2,4,6,

le_enable_trace 0
le_trace_interval 0
le_trace_file_name 
le_trace_state 0
le_enable_score_plot 0
le_plot_file_name 
le_plot_actions 
le_enable_action_trace 0
le_action_trace_interval 0
le_action_trace_name 
le_enable_action_plot 0

le_featurewise_active_features PC, PC_Delta
le_featurewise_num_tilings 3,3,
le_featurewise_num_tiles 128,128,
le_featurewise_hash_types 2,2,
le_featurewise_enable_tiling_offset 1,1,
le_featurewise_max_q_thresh 0.5
le_featurewise_enable_action_fallback 1
le_featurewise_feature_weights 1,1,
le_featurewise_enable_dynamic_weight 0
le_featurewise_weight_gradient 0.001
le_featurewise_disable_adjust_weight_all_features_align 1
le_featurewise_selective_update 0
le_featurewise_pooling_type 2
le_featurewise_enable_dyn_action_fallback 1
le_featurewise_bw_acc_check_level 1
le_featurewise_acc_thresh 2
le_featurewise_enable_trace 0
le_featurewise_trace_feature_type 0
le_featurewise_trace_feature 
le_featurewise_trace_interval 0
le_featurewise_trace_record_count 0
le_featurewise_trace_file_name 
le_featurewise_enable_score_plot 0
le_featurewise_plot_actions 
le_featurewise_plot_file_name 


Heartbeat CPU  0 instructions:    1000001 cycles:     526723 heartbeat IPC: 1.89853 cumulative IPC: 1.89853 (Simulation time: 0 hr 0 min 1 sec) 

Warmup complete CPU  0 instructions:    1000001 cycles:     526723 (Simulation time: 0 hr 0 min 1 sec) 

Heartbeat CPU  0 instructions:    2000001 cycles:    1290127 heartbeat IPC: 1.30992 cumulative IPC: 1.30992 (Simulation time: 0 hr 0 min 3 sec) 
Heartbeat CPU  0 instructions:    3000000 cycles:    2052417 heartbeat IPC: 1.31184 cumulative IPC: 1.31088 (Simulation time: 0 hr 0 min 5 sec) 
Heartbeat CPU  0 instructions:    4000000 cycles:    2814970 heartbeat IPC: 1.31138 cumulative IPC: 1.31105 (Simulation time: 0 hr 0 min 7 sec) 
Heartbeat CPU  0 instructions:    5000001 cycles:    3572506 heartbeat IPC: 1.32007 cumulative IPC: 1.31329 (Simulation time: 0 hr 0 min 8 sec) 
Heartbeat CPU  0 instructions:    6000002 cycles:    4329375 heartbeat IPC: 1.32123 cumulative IPC: 1.31487 (Simulation time: 0 hr 0 min 10 sec) 
Heartbeat CPU  0 instructions:    7000003 cycles:    5092315 heartbeat IPC: 1.31072 cumulative IPC: 1.31418 (Simulation time: 0 hr 0 min 12 sec) 
Heartbeat CPU  0 instructions:    8000000 cycles:    5851921 heartbeat IPC: 1.31647 cumulative IPC: 1.31450 (Simulation time: 0 hr 0 min 14 sec) 
Heartbeat CPU  0 instructions:    9000002 cycles:    6616316 heartbeat IPC: 1.30823 cumulative IPC: 1.31372 (Simulation time: 0 hr 0 min 15 sec) 
Heartbeat CPU  0 instructions:   10000002 cycles:    7380990 heartbeat IPC: 1.30775 cumulative IPC: 1.31305 (Simulation time: 0 hr 0 min 17 sec) 
Heartbeat CPU  0 instructions:   11000000 cycles:    8143845 heartbeat IPC: 1.31086 cumulative IPC: 1.31283 (Simulation time: 0 hr 0 min 19 sec) 
Finished CPU 0 instructions: 10000003 cycles: 7617124 cumulative IPC: 1.31283 (Simulation time: 0 hr 0 min 19 sec) 

ChampSim completed all CPUs

[ROI Statistics]
Core_0_instructions 10000003
Core_0_cycles 7617124
Core_0_IPC 1.31283

Core_0_branch_prediction_accuracy 99.96835
Core_0_branch_MPKI 0.00790
Core_0_average_ROB_occupancy_at_mispredict 243.22785

Core_0_L1D_total_access 3602043
Core_0_L1D_total_hit 3394330
Core_0_L1D_total_miss 207713
Core_0_L1D_loads 3047873
Core_0_L1D_load_hit 2846499
Core_0_L1D_load_miss 201374
Core_0_L1D_RFOs 554170
Core_0_L1D_RFO_hit 547831
Core_0_L1D_RFO_miss 6339
Core_0_L1D_prefetches 0
Core_0_L1D_prefetch_hit 0
Core_0_L1D_prefetch_miss 0
Core_0_L1D_writebacks 0
Core_0_L1D_writeback_hit 0
Core_0_L1D_writeback_miss 0
Core_0_L1D_prefetch_requested 0
Core_0_L1D_prefetch_dropped 0
Core_0_L1D_prefetch_issued 0
Core_0_L1D_prefetch_filled 0
Core_0_L1D_prefetch_useful 0
Core_0_L1D_prefetch_useless 0
Core_0_L1D_prefetch_late 0
Core_0_L1D_average_miss_latency 36.75835

Core_0_L1D_rq_access 4151345
Core_0_L1D_rq_forward 0
Core_0_L1D_rq_merged 1079076
Core_0_L1D_rq_to_cache 3072269
Core_0_L1D_rq_full 0

Core_0_L1D_wq_access 563344
Core_0_L1D_wq_forward 0
Core_0_L1D_wq_merged 0
Core_0_L1D_wq_to_cache 563344
Core_0_L1D_wq_full 0

Core_0_L1D_pq_access 0
Core_0_L1D_pq_forward 0
Core_0_L1D_pq_merged 0
Core_0_L1D_pq_to_cache 0
Core_0_L1D_pq_full 0

Core_0_L1D_acc_epochs 7667
Core_0_L1D_acc_level_0 7667
Core_0_L1D_acc_level_1 0
Core_0_L1D_acc_level_2 0
Core_0_L1D_acc_level_3 0
Core_0_L1D_acc_level_4 0
Core_0_L1D_acc_level_5 0
Core_0_L1D_acc_level_6 0
Core_0_L1D_acc_level_7 0
Core_0_L1D_acc_level_8 0
Core_0_L1D_acc_level_9 0

Core_0_L1I_total_access 2428647
Core_0_L1I_total_hit 2428642
Core_0_L1I_total_miss 5
Core_0_L1I_loads 2428647
Core_0_L1I_load_hit 2428642
Core_0_L1I_load_miss 5
Core_0_L1I_RFOs 0
Core_0_L1I_RFO_hit 0
Core_0_L1I_RFO_miss 0
Core_0_L1I_prefetches 0
Core_0_L1I_prefetch_hit 0
Core_0_L1I_prefetch_miss 0
Core_0_L1I_writebacks 0
Core_0_L1I_writeback_hit 0
Core_0_L1I_writeback_miss 0
Core_0_L1I_prefetch_requested 0
Core_0_L1I_prefetch_dropped 0
Core_0_L1I_prefetch_issued 0
Core_0_L1I_prefetch_filled 0
Core_0_L1I_prefetch_useful 0
Core_0_L1I_prefetch_useless 0
Core_0_L1I_prefetch_late 0
Core_0_L1I_average_miss_latency 183.20000

Core_0_L1I_rq_access 10000004
Core_0_L1I_rq_forward 0
Core_0_L1I_rq_merged 7571355
Core_0_L1I_rq_to_cache 2428649
Core_0_L1I_rq_full 0

Core_0_L1I_wq_access 0
Core_0_L1I_wq_forward 0
Core_0_L1I_wq_merged 0
Core_0_L1I_wq_to_cache 0
Core_0_L1I_wq_full 0

Core_0_L1I_pq_access 0
Core_0_L1I_pq_forward 0
Core_0_L1I_pq_merged 0
Core_0_L1I_pq_to_cache 0
Core_0_L1I_pq_full 0

Core_0_L1I_acc_epochs 7667
Core_0_L1I_acc_level_0 7667
Core_0_L1I_acc_level_1 0
Core_0_L1I_acc_level_2 0
Core_0_L1I_acc_level_3 0
Core_0_L1I_acc_level_4 0
Core_0_L1I_acc_level_5 0
Core_0_L1I_acc_level_6 0
Core_0_L1I_acc_level_7 0
Core_0_L1I_acc_level_8 0
Core_0_L1I_acc_level_9 0

Core_0_L2C_total_access 840062
Core_0_L2C_total_hit 649960
Core_0_L2C_total_miss 190102
Core_0_L2C_loads 201313
Core_0_L2C_load_hit 189269
Core_0_L2C_load_miss 12044
Core_0_L2C_RFOs 6184
Core_0_L2C_RFO_hit 1311
Core_0_L2C_RFO_miss 4873
Core_0_L2C_prefetches 625674
Core_0_L2C_prefetch_hit 452509
Core_0_L2C_prefetch_miss 173165
Core_0_L2C_writebacks 6891
Core_0_L2C_writeback_hit 6871
Core_0_L2C_writeback_miss 20
Core_0_L2C_prefetch_requested 1108398
Core_0_L2C_prefetch_dropped 300790
Core_0_L2C_prefetch_issued 807608
Core_0_L2C_prefetch_filled 191178
Core_0_L2C_prefetch_useful 191102
Core_0_L2C_prefetch_useless 20
Core_0_L2C_prefetch_late 5801
Core_0_L2C_average_miss_latency 276.31020

Core_0_L2C_rq_access 207718
Core_0_L2C_rq_forward 0
Core_0_L2C_rq_merged 0
Core_0_L2C_rq_to_cache 207497
Core_0_L2C_rq_full 0

Core_0_L2C_wq_access 6891
Core_0_L2C_wq_forward 221
Core_0_L2C_wq_merged 0
Core_0_L2C_wq_to_cache 6891
Core_0_L2C_wq_full 0

Core_0_L2C_pq_access 807608
Core_0_L2C_pq_forward 0
Core_0_L2C_pq_merged 52369
Core_0_L2C_pq_to_cache 755239
Core_0_L2C_pq_full 0

Core_0_L2C_acc_epochs 7667
Core_0_L2C_acc_level_0 1
Core_0_L2C_acc_level_1 0
Core_0_L2C_acc_level_2 0
Core_0_L2C_acc_level_3 3
Core_0_L2C_acc_level_4 14
Core_0_L2C_acc_level_5 22
Core_0_L2C_acc_level_6 55
Core_0_L2C_acc_level_7 264
Core_0_L2C_acc_level_8 1231
Core_0_L2C_acc_level_9 6077

Core_0_LLC_total_access 195003
Core_0_LLC_total_hit 540
Core_0_LLC_total_miss 194463
Core_0_LLC_loads 6252
Core_0_LLC_load_hit 1
Core_0_LLC_load_miss 6251
Core_0_LLC_RFOs 4873
Core_0_LLC_RFO_hit 0
Core_0_LLC_RFO_miss 4873
Core_0_LLC_prefetches 178958
Core_0_LLC_prefetch_hit 10
Core_0_LLC_prefetch_miss 178948
Core_0_LLC_writebacks 4920
Core_0_LLC_writeback_hit 529
Core_0_LLC_writeback_miss 4391
Core_0_LLC_prefetch_requested 0
Core_0_LLC_prefetch_dropped 0
Core_0_LLC_prefetch_issued 0
Core_0_LLC_prefetch_filled 196970
Core_0_LLC_prefetch_useful 1
Core_0_LLC_prefetch_useless 170378
Core_0_LLC_prefetch_late 0
Core_0_LLC_average_miss_latency 243.41558

Core_0_LLC_rq_access 11125
Core_0_LLC_rq_forward 0
Core_0_LLC_rq_merged 0
Core_0_LLC_rq_to_cache 11125
Core_0_LLC_rq_full 0

Core_0_LLC_wq_access 4920
Core_0_LLC_wq_forward 0
Core_0_LLC_wq_merged 0
Core_0_LLC_wq_to_cache 4920
Core_0_LLC_wq_full 0

Core_0_LLC_pq_access 196982
Core_0_LLC_pq_forward 0
Core_0_LLC_pq_merged 0
Core_0_LLC_pq_to_cache 196982
Core_0_LLC_pq_full 0

Core_0_LLC_acc_epochs 7953
Core_0_LLC_acc_level_0 7953
Core_0_LLC_acc_level_1 0
Core_0_LLC_acc_level_2 0
Core_0_LLC_acc_level_3 0
Core_0_LLC_acc_level_4 0
Core_0_LLC_acc_level_5 0
Core_0_LLC_acc_level_6 0
Core_0_LLC_acc_level_7 0
Core_0_LLC_acc_level_8 0
Core_0_LLC_acc_level_9 0

Core_0_major_page_fault 0
Core_0_minor_page_fault 3283

scooby_st_lookup 222451
scooby_st_hit 219252
scooby_st_evict 3135
scooby_st_insert 3199
scooby_st_streaming 0

scooby_predict_called 222451
scooby_predict_out_of_bounds 3419
scooby_predict_action_1 218361
scooby_predict_issue_action_1 210995
scooby_predict_hit_action_1 7366
scooby_predict_out_of_bounds_action_1 3346
scooby_predict_action_3 370
scooby_predict_issue_action_3 147
scooby_predict_hit_action_3 223
scooby_predict_out_of_bounds_action_3 3
scooby_predict_action_4 22
scooby_predict_issue_action_4 22
scooby_predict_hit_action_4 0
scooby_predict_out_of_bounds_action_4 2
scooby_predict_action_5 25
scooby_predict_issue_action_5 25
scooby_predict_hit_action_5 0
scooby_predict_out_of_bounds_action_5 1
scooby_predict_action_10 35
scooby_predict_issue_action_10 35
scooby_predict_hit_action_10 0
scooby_predict_out_of_bounds_action_10 3
scooby_predict_action_11 23
scooby_predict_issue_action_11 23
scooby_predict_hit_action_11 0
scooby_predict_out_of_bounds_action_11 6
scooby_predict_action_12 23
scooby_predict_issue_action_12 23
scooby_predict_hit_action_12 0
scooby_predict_out_of_bounds_action_12 3
scooby_predict_action_22 23
scooby_predict_issue_action_22 23
scooby_predict_hit_action_22 0
scooby_predict_out_of_bounds_action_22 11
scooby_predict_action_23 18
scooby_predict_issue_action_23 18
scooby_predict_hit_action_23 0
scooby_predict_out_of_bounds_action_23 9
scooby_predict_action_30 18
scooby_predict_issue_action_30 18
scooby_predict_hit_action_30 0
scooby_predict_out_of_bounds_action_30 15
scooby_predict_action_32 8
scooby_predict_issue_action_32 8
scooby_predict_hit_action_32 0
scooby_predict_out_of_bounds_action_32 16
scooby_predict_action_-1 29
scooby_predict_issue_action_-1 1
scooby_predict_hit_action_-1 28
scooby_predict_out_of_bounds_action_-1 0
scooby_predict_action_-3 24
scooby_predict_issue_action_-3 0
scooby_predict_hit_action_-3 24
scooby_predict_out_of_bounds_action_-3 0
scooby_predict_action_-6 20
scooby_predict_issue_action_-6 2
scooby_predict_hit_action_-6 18
scooby_predict_out_of_bounds_action_-6 4
scooby_predict_action_0 33
scooby_predict_issue_action_0 0
scooby_predict_hit_action_0 0
scooby_predict_out_of_bounds_action_0 0
scooby_predict_multi_deg_called 201000
scooby_predict_predicted 1108398
scooby_predict_multi_deg 897058
scooby_predict_multi_deg_2 197677
scooby_predict_multi_deg_3 187829
scooby_predict_multi_deg_4 184502
scooby_predict_multi_deg_5 165190
scooby_predict_multi_deg_6 161860
scooby_predict_multi_deg_7 0
scooby_predict_multi_deg_8 0
scooby_predict_multi_deg_9 0
scooby_predict_multi_deg_10 0
scooby_predict_multi_deg_11 0
scooby_predict_multi_deg_12 0
scooby_predict_multi_deg_13 0
scooby_predict_multi_deg_14 0
scooby_predict_multi_deg_15 0
scooby_predict_multi_deg_16 0

scooby_selected_deg_1 10340
scooby_selected_deg_2 6510
scooby_selected_deg_3 0
scooby_selected_deg_4 15985
scooby_selected_deg_5 0
scooby_selected_deg_6 178505
scooby_selected_deg_7 0
scooby_selected_deg_8 0
scooby_selected_deg_9 0
scooby_selected_deg_10 0
scooby_selected_deg_11 0
scooby_selected_deg_12 0
scooby_selected_deg_13 0
scooby_selected_deg_14 0
scooby_selected_deg_15 0
scooby_selected_deg_16 0

scooby_state_401a93|29|1 468,0,0,0,0,0,0,0,0,0,0,0,0,0,0,468,
scooby_state_401a30|29|1 465,0,0,0,0,0,0,0,0,1,0,0,0,0,0,466,
scooby_state_401a61|29|1 458,0,0,0,0,0,0,0,0,0,0,0,0,0,0,458,
scooby_state_401a6f|29|1 450,0,0,0,0,0,0,0,0,0,0,0,0,0,0,450,
scooby_state_401a93|27|1 448,0,0,0,0,0,0,0,0,0,0,0,0,1,0,449,
scooby_state_401a3c|29|1 447,0,0,0,0,0,0,0,0,0,0,0,0,0,0,447,
scooby_state_401a86|29|1 439,0,0,0,0,0,0,0,0,0,0,1,0,0,0,440,
scooby_state_401a54|29|1 432,0,0,0,0,0,0,0,0,0,0,0,0,0,0,432,
scooby_state_401a6f|27|1 431,0,0,0,0,0,0,0,0,0,0,0,0,0,0,431,
scooby_state_401a30|27|1 428,0,0,0,1,0,0,0,0,0,1,0,0,0,0,430,
scooby_state_401a86|27|1 425,0,1,0,0,0,1,0,0,0,0,0,0,0,0,427,
scooby_state_401a54|27|1 424,0,0,0,0,0,0,0,0,0,0,0,0,0,0,424,
scooby_state_401a30|13|1 422,0,0,0,0,0,0,0,0,0,0,0,0,0,0,422,
scooby_state_401a61|13|1 422,0,0,0,0,0,0,0,0,0,0,0,0,0,0,422,
scooby_state_401a61|61|1 421,0,0,0,0,0,0,0,0,1,0,0,0,0,0,422,
scooby_state_401a3c|27|1 419,0,0,0,0,0,0,1,0,0,0,0,1,0,0,421,
scooby_state_401a6f|45|1 419,0,0,0,1,0,0,1,0,0,0,0,0,0,0,421,
scooby_state_401a30|61|1 421,0,0,0,0,0,0,0,0,0,0,0,0,0,0,421,
scooby_state_401a61|27|1 419,0,0,0,0,0,0,0,0,1,0,0,0,0,1,421,
scooby_state_401a3c|61|1 420,0,0,0,0,0,0,0,0,0,0,0,0,0,0,420,
scooby_state_401a93|13|1 419,0,0,0,0,0,0,0,0,0,0,0,0,1,0,420,
scooby_state_401a54|13|1 420,0,0,0,0,0,0,0,0,0,0,0,0,0,0,420,
scooby_state_401a6f|61|1 420,0,0,0,0,0,0,0,0,0,0,0,0,0,0,420,
scooby_state_401a86|13|1 420,0,0,0,0,0,0,0,0,0,0,0,0,0,0,420,
scooby_state_401a3c|35|1 417,0,0,0,1,0,0,1,0,0,0,0,0,0,0,419,
scooby_state_401a3c|9|1 417,0,0,0,0,0,0,0,0,1,0,1,0,0,0,419,
scooby_state_401a86|40|1 418,0,0,0,0,0,1,0,0,0,0,0,0,0,0,419,
scooby_state_401a86|8|1 419,0,0,0,0,0,0,0,0,0,0,0,0,0,0,419,
scooby_state_401a3c|8|1 417,0,0,0,1,0,0,0,0,1,0,0,0,0,0,419,
scooby_state_401a54|8|1 419,0,0,0,0,0,0,0,0,0,0,0,0,0,0,419,
scooby_state_401a6f|44|1 419,0,0,0,0,0,0,0,0,0,0,0,0,0,0,419,
scooby_state_401a93|24|1 417,0,0,0,1,0,0,1,0,0,0,0,0,0,0,419,
scooby_state_401a86|25|1 419,0,0,0,0,0,0,0,0,0,0,0,0,0,0,419,
scooby_state_401a6f|12|1 419,0,0,0,0,0,0,0,0,0,0,0,0,0,0,419,
scooby_state_401a61|25|1 418,0,0,0,0,0,0,0,0,0,0,0,0,0,1,419,
scooby_state_401a6f|26|1 419,0,0,0,0,0,0,0,0,0,0,0,0,0,0,419,
scooby_state_401a30|34|1 419,0,0,0,0,0,0,0,0,0,0,0,0,0,0,419,
scooby_state_401a30|26|1 418,0,1,0,0,0,0,0,0,0,0,0,0,0,0,419,
scooby_state_401a61|40|1 419,0,0,0,0,0,0,0,0,0,0,0,0,0,0,419,
scooby_state_401a3c|26|1 419,0,0,0,0,0,0,0,0,0,0,0,0,0,0,419,
scooby_state_401a30|43|1 419,0,0,0,0,0,0,0,0,0,0,0,0,0,0,419,
scooby_state_401a3c|18|1 418,0,0,0,0,0,0,0,1,0,0,0,0,0,0,419,
scooby_state_401a93|41|1 417,0,0,0,0,0,0,1,0,0,0,0,0,0,1,419,
scooby_state_401a93|20|1 414,0,1,0,1,0,0,0,0,0,1,0,0,0,2,419,
scooby_state_401a93|23|1 419,0,0,0,0,0,0,0,0,0,0,0,0,0,0,419,
scooby_state_401a86|7|1 419,0,0,0,0,0,0,0,0,0,0,0,0,0,0,419,
scooby_state_401a86|9|1 419,0,0,0,0,0,0,0,0,0,0,0,0,0,0,419,
scooby_state_401a86|11|1 419,0,0,0,0,0,0,0,0,0,0,0,0,0,0,419,
scooby_state_401a6f|13|1 418,0,0,0,0,0,1,0,0,0,0,0,0,0,0,419,
scooby_state_401a6f|34|1 415,0,0,0,0,0,0,0,1,1,0,1,0,1,0,419,
scooby_state_401a93|18|1 418,0,0,1,0,0,0,0,0,0,0,0,0,0,0,419,
scooby_state_401a3c|4|1 416,0,0,1,1,0,0,0,0,0,0,0,0,1,0,419,
scooby_state_401a54|45|1 419,0,0,0,0,0,0,0,0,0,0,0,0,0,0,419,
scooby_state_401a6f|1|1 418,0,0,0,0,0,1,0,0,0,0,0,0,0,0,419,
scooby_state_401a30|40|1 417,0,1,0,0,0,0,0,1,0,0,0,0,0,0,419,
scooby_state_401a3c|24|1 419,0,0,0,0,0,0,0,0,0,0,0,0,0,0,419,
scooby_state_401a6f|2|1 418,0,0,0,0,0,0,0,1,0,0,0,0,0,0,419,
scooby_state_401a3c|12|1 419,0,0,0,0,0,0,0,0,0,0,0,0,0,0,419,
scooby_state_401a6f|8|1 418,0,0,1,0,0,0,0,0,0,0,0,0,0,0,419,
scooby_state_401a30|10|1 419,0,0,0,0,0,0,0,0,0,0,0,0,0,0,419,
scooby_state_401a6f|38|1 418,0,0,0,0,0,1,0,0,0,0,0,0,0,0,419,
scooby_state_401a86|3|1 418,0,0,0,0,0,0,0,0,1,0,0,0,0,0,419,
scooby_state_401a61|7|1 418,0,0,0,0,0,1,0,0,0,0,0,0,0,0,419,
scooby_state_401a6f|4|1 419,0,0,0,0,0,0,0,0,0,0,0,0,0,0,419,
scooby_state_401a61|11|1 419,0,0,0,0,0,0,0,0,0,0,0,0,0,0,419,
scooby_state_401a61|18|1 419,0,0,0,0,0,0,0,0,0,0,0,0,0,0,419,
scooby_state_401a93|62|1 415,1,0,0,0,1,0,0,2,0,0,0,0,0,0,419,
scooby_state_401a6f|25|1 417,1,0,0,0,0,1,0,0,0,0,0,0,0,0,419,
scooby_state_401a30|45|1 417,1,0,0,1,0,0,0,0,0,0,0,0,0,0,419,
scooby_state_401a3c|6|1 417,1,0,0,0,0,0,1,0,0,0,0,0,0,0,419,
scooby_state_401a93|35|1 417,0,0,0,0,0,0,0,0,0,1,0,0,1,0,419,
scooby_state_401a3c|20|1 417,0,1,0,0,0,0,0,0,0,0,1,0,0,0,419,
scooby_state_401a3c|42|1 418,0,0,0,0,1,0,0,0,0,0,0,0,0,0,419,
scooby_state_401a6f|39|1 417,1,0,0,0,1,0,0,0,0,0,0,0,0,0,419,
scooby_state_401a3c|40|1 418,0,0,0,0,0,0,0,1,0,0,0,0,0,0,419,
scooby_state_401a6f|23|1 419,0,0,0,0,0,0,0,0,0,0,0,0,0,0,419,
scooby_state_401a86|39|1 418,0,0,0,0,0,0,0,0,0,0,0,0,0,1,419,
scooby_state_401a54|40|1 419,0,0,0,0,0,0,0,0,0,0,0,0,0,0,419,
scooby_state_401a93|40|1 417,0,0,0,0,2,0,0,0,0,0,0,0,0,0,419,
scooby_state_401a86|18|1 418,0,0,0,0,0,0,1,0,0,0,0,0,0,0,419,
scooby_state_401a6f|41|1 419,0,0,0,0,0,0,0,0,0,0,0,0,0,0,419,
scooby_state_401a30|41|1 417,0,0,0,1,0,0,0,0,0,0,0,0,0,1,419,
scooby_state_401a3c|41|1 418,0,0,0,1,0,0,0,0,0,0,0,0,0,0,419,
scooby_state_401a3c|39|1 418,0,0,0,0,1,0,0,0,0,0,0,0,0,0,419,
scooby_state_401a61|21|1 419,0,0,0,0,0,0,0,0,0,0,0,0,0,0,419,
scooby_state_401a6f|40|1 419,0,0,0,0,0,0,0,0,0,0,0,0,0,0,419,
scooby_state_401a3c|43|1 419,0,0,0,0,0,0,0,0,0,0,0,0,0,0,419,
scooby_state_401a61|19|1 418,0,0,0,0,0,0,0,0,1,0,0,0,0,0,419,
scooby_state_401a86|23|1 419,0,0,0,0,0,0,0,0,0,0,0,0,0,0,419,
scooby_state_401a61|43|1 419,0,0,0,0,0,0,0,0,0,0,0,0,0,0,419,
scooby_state_401a6f|21|1 417,0,0,0,1,0,0,1,0,0,0,0,0,0,0,419,
scooby_state_401a93|5|1 418,0,0,0,0,0,0,0,0,0,0,0,0,0,1,419,
scooby_state_401a61|44|1 419,0,0,0,0,0,0,0,0,0,0,0,0,0,0,419,
scooby_state_401a86|44|1 419,0,0,0,0,0,0,0,0,0,0,0,0,0,0,419,
scooby_state_401a54|44|1 419,0,0,0,0,0,0,0,0,0,0,0,0,0,0,419,
scooby_state_401a93|36|1 418,0,0,0,1,0,0,0,0,0,0,0,0,0,0,419,
scooby_state_401a86|41|1 419,0,0,0,0,0,0,0,0,0,0,0,0,0,0,419,
scooby_state_401a93|7|1 417,0,0,0,0,0,0,0,0,0,0,1,0,1,0,419,
scooby_state_401a54|34|1 418,0,0,0,0,0,0,0,0,0,0,0,0,0,1,419,
scooby_state_401a61|24|1 419,0,0,0,0,0,0,0,0,0,0,0,0,0,0,419,
scooby_state_401a86|34|1 418,0,0,0,0,0,0,0,1,0,0,0,0,0,0,419,
scooby_state_401a93|34|1 419,0,0,0,0,0,0,0,0,0,0,0,0,0,0,419,
scooby_state_401a86|35|1 419,0,0,0,0,0,0,0,0,0,0,0,0,0,0,419,
scooby_state_401a54|35|1 419,0,0,0,0,0,0,0,0,0,0,0,0,0,0,419,
scooby_state_401a30|44|1 418,0,0,0,0,0,0,0,0,1,0,0,0,0,0,419,
scooby_state_401a6f|36|1 419,0,0,0,0,0,0,0,0,0,0,0,0,0,0,419,
scooby_state_401a86|36|1 417,1,0,0,0,0,0,0,1,0,0,0,0,0,0,419,
scooby_state_401a54|0|0 419,0,0,0,0,0,0,0,0,0,0,0,0,0,0,419,
scooby_state_401a93|2|1 419,0,0,0,0,0,0,0,0,0,0,0,0,0,0,419,
scooby_state_401a30|37|1 417,0,0,0,0,0,0,1,0,1,0,0,0,0,0,419,
scooby_state_401a86|37|1 419,0,0,0,0,0,0,0,0,0,0,0,0,0,0,419,
scooby_state_401a54|37|1 415,0,0,0,0,0,0,0,0,1,0,2,1,0,0,419,
scooby_state_401a3c|25|1 419,0,0,0,0,0,0,0,0,0,0,0,0,0,0,419,
scooby_state_401a93|12|1 419,0,0,0,0,0,0,0,0,0,0,0,0,0,0,419,
scooby_state_401a93|37|1 418,0,0,0,0,0,0,0,0,0,0,0,1,0,0,419,
scooby_state_401a86|38|1 417,0,0,0,0,0,0,0,2,0,0,0,0,0,0,419,
scooby_state_401a3c|44|1 419,0,0,0,0,0,0,0,0,0,0,0,0,0,0,419,
scooby_state_401a54|38|1 419,0,0,0,0,0,0,0,0,0,0,0,0,0,0,419,
scooby_state_401a93|11|1 419,0,0,0,0,0,0,0,0,0,0,0,0,0,0,419,
scooby_state_401a93|0|0 419,0,0,0,0,0,0,0,0,0,0,0,0,0,0,419,
scooby_state_401a86|10|1 417,0,1,0,1,0,0,0,0,0,0,0,0,0,0,419,
scooby_state_401a3c|21|1 419,0,0,0,0,0,0,0,0,0,0,0,0,0,0,419,
scooby_state_401a30|0|0 417,0,0,0,0,1,0,1,0,0,0,0,0,0,0,419,
scooby_state_401a3c|36|1 418,1,0,0,0,0,0,0,0,0,0,0,0,0,0,419,
scooby_state_401a61|26|1 418,0,0,0,0,0,0,0,1,0,0,0,0,0,0,419,
scooby_state_401a93|19|1 419,0,0,0,0,0,0,0,0,0,0,0,0,0,0,419,
scooby_state_401a6f|20|1 417,0,0,1,0,0,0,1,0,0,0,0,0,0,0,419,
scooby_state_401a54|61|1 419,0,0,0,0,0,0,0,0,0,0,0,0,0,0,419,
scooby_state_401a3c|23|1 417,0,0,0,1,0,0,0,0,0,0,0,1,0,0,419,
scooby_state_401a61|62|1 419,0,0,0,0,0,0,0,0,0,0,0,0,0,0,419,
scooby_state_401a86|21|1 418,0,0,0,0,0,0,0,0,0,0,0,1,0,0,419,
scooby_state_401a61|37|1 416,0,0,0,0,0,1,0,0,0,0,1,0,1,0,419,
scooby_state_401a30|22|1 417,0,1,0,1,0,0,0,0,0,0,0,0,0,0,419,
scooby_state_401a54|39|1 418,0,0,0,0,0,0,0,0,1,0,0,0,0,0,419,
scooby_state_401a30|9|1 417,0,0,1,1,0,0,0,0,0,0,0,0,0,0,419,
scooby_state_401a3c|38|1 417,0,0,0,0,0,1,0,0,0,0,0,0,0,1,419,
scooby_state_401a93|4|1 419,0,0,0,0,0,0,0,0,0,0,0,0,0,0,419,
scooby_state_401a54|18|1 417,1,0,0,0,0,0,0,1,0,0,0,0,0,0,419,
scooby_state_401a6f|9|1 419,0,0,0,0,0,0,0,0,0,0,0,0,0,0,419,
scooby_state_401a30|5|1 417,0,0,1,0,0,0,0,0,0,0,0,0,1,0,419,
scooby_state_401a54|6|1 417,0,0,0,2,0,0,0,0,0,0,0,0,0,0,419,
scooby_state_401a86|5|1 418,0,0,0,0,0,0,0,0,0,0,1,0,0,0,419,
scooby_state_401a93|42|1 417,0,0,0,0,0,0,0,0,1,0,1,0,0,0,419,
scooby_state_401a61|35|1 419,0,0,0,0,0,0,0,0,0,0,0,0,0,0,419,
scooby_state_401a54|41|1 417,0,0,0,1,0,0,0,0,1,0,0,0,0,0,419,
scooby_state_401a30|25|1 418,0,0,0,0,0,0,0,0,0,0,1,0,0,0,419,
scooby_state_401a61|0|0 419,0,0,0,0,0,0,0,0,0,0,0,0,0,0,419,
scooby_state_401a61|12|1 418,0,0,0,0,0,0,0,0,0,1,0,0,0,0,419,
scooby_state_401a61|41|1 419,0,0,0,0,0,0,0,0,0,0,0,0,0,0,419,
scooby_state_401a30|4|1 418,0,0,0,0,0,0,0,0,0,0,0,0,1,0,419,
scooby_state_401a6f|0|0 418,0,0,0,0,0,0,0,0,1,0,0,0,0,0,419,
scooby_state_401a3c|10|1 419,0,0,0,0,0,0,0,0,0,0,0,0,0,0,419,
scooby_state_401a6f|43|1 419,0,0,0,0,0,0,0,0,0,0,0,0,0,0,419,
scooby_state_401a30|6|1 418,0,0,0,0,0,0,0,0,1,0,0,0,0,0,419,
scooby_state_401a61|45|1 418,0,0,0,0,0,0,0,0,0,0,0,0,0,1,419,
scooby_state_401a6f|37|1 418,0,0,0,0,1,0,0,0,0,0,0,0,0,0,419,
scooby_state_401a6f|7|1 419,0,0,0,0,0,0,0,0,0,0,0,0,0,0,419,
scooby_state_401a6f|10|1 416,0,0,1,0,1,0,1,0,0,0,0,0,0,0,419,
scooby_state_401a6f|22|1 418,1,0,0,0,0,0,0,0,0,0,0,0,0,0,419,
scooby_state_401a93|3|1 419,0,0,0,0,0,0,0,0,0,0,0,0,0,0,419,
scooby_state_401a3c|37|1 418,0,0,0,0,0,0,0,0,1,0,0,0,0,0,419,
scooby_state_401a6f|19|1 419,0,0,0,0,0,0,0,0,0,0,0,0,0,0,419,
scooby_state_401a86|62|1 419,0,0,0,0,0,0,0,0,0,0,0,0,0,0,419,
scooby_state_401a6f|5|1 418,0,0,1,0,0,0,0,0,0,0,0,0,0,0,419,
scooby_state_401a86|22|1 419,0,0,0,0,0,0,0,0,0,0,0,0,0,0,419,
scooby_state_401a61|36|1 418,0,0,0,0,1,0,0,0,0,0,0,0,0,0,419,
scooby_state_401a30|38|1 418,0,0,0,1,0,0,0,0,0,0,0,0,0,0,419,
scooby_state_401a54|7|1 419,0,0,0,0,0,0,0,0,0,0,0,0,0,0,419,
scooby_state_401a93|21|1 418,0,0,0,0,0,0,0,0,0,0,0,0,0,1,419,
scooby_state_401a61|20|1 419,0,0,0,0,0,0,0,0,0,0,0,0,0,0,419,
scooby_state_401a54|36|1 419,0,0,0,0,0,0,0,0,0,0,0,0,0,0,419,
scooby_state_401a30|42|1 419,0,0,0,0,0,0,0,0,0,0,0,0,0,0,419,
scooby_state_401a86|42|1 418,0,0,0,0,0,1,0,0,0,0,0,0,0,0,419,
scooby_state_401a30|8|1 418,0,1,0,0,0,0,0,0,0,0,0,0,0,0,419,
scooby_state_401a93|6|1 419,0,0,0,0,0,0,0,0,0,0,0,0,0,0,419,
scooby_state_401a6f|24|1 419,0,0,0,0,0,0,0,0,0,0,0,0,0,0,419,
scooby_state_401a3c|5|1 418,0,0,0,1,0,0,0,0,0,0,0,0,0,0,419,
scooby_state_401a93|25|1 418,0,0,0,0,0,0,0,0,0,0,0,1,0,0,419,
scooby_state_401a30|35|1 418,1,0,0,0,0,0,0,0,0,0,0,0,0,0,419,
scooby_state_401a86|24|1 415,0,1,0,1,0,1,0,1,0,0,0,0,0,0,419,
scooby_state_401a86|0|0 418,0,0,0,1,0,0,0,0,0,0,0,0,0,0,419,
scooby_state_401a30|7|1 419,0,0,0,0,0,0,0,0,0,0,0,0,0,0,419,
scooby_state_401a30|24|1 418,0,0,0,0,0,0,0,0,0,0,1,0,0,0,419,
scooby_state_401a93|10|1 418,0,0,0,0,0,0,0,1,0,0,0,0,0,0,419,
scooby_state_401a93|14|1 419,0,0,0,0,0,0,0,0,0,0,0,0,0,0,419,
scooby_state_401a30|20|1 419,0,0,0,0,0,0,0,0,0,0,0,0,0,0,419,
scooby_state_401a86|1|1 417,1,0,0,0,0,0,0,0,0,0,1,0,0,0,419,
scooby_state_401a54|4|1 419,0,0,0,0,0,0,0,0,0,0,0,0,0,0,419,
scooby_state_401a93|43|1 419,0,0,0,0,0,0,0,0,0,0,0,0,0,0,419,
scooby_state_401a6f|18|1 418,0,0,0,0,0,0,0,0,0,0,0,0,0,1,419,
scooby_state_401a30|39|1 419,0,0,0,0,0,0,0,0,0,0,0,0,0,0,419,
scooby_state_401a61|9|1 418,0,0,1,0,0,0,0,0,0,0,0,0,0,0,419,
scooby_state_401a54|9|1 419,0,0,0,0,0,0,0,0,0,0,0,0,0,0,419,
scooby_state_401a6f|6|1 417,0,0,0,0,0,0,1,0,0,0,0,1,0,0,419,
scooby_state_401a3c|34|1 419,0,0,0,0,0,0,0,0,0,0,0,0,0,0,419,
scooby_state_401a86|43|1 419,0,0,0,0,0,0,0,0,0,0,0,0,0,0,419,
scooby_state_401a30|12|1 419,0,0,0,0,0,0,0,0,0,0,0,0,0,0,419,
scooby_state_401a54|20|1 419,0,0,0,0,0,0,0,0,0,0,0,0,0,0,419,
scooby_state_401a93|38|1 419,0,0,0,0,0,0,0,0,0,0,0,0,0,0,419,
scooby_state_401a61|4|1 416,1,0,0,0,0,0,0,0,1,0,1,0,0,0,419,
scooby_state_401a93|1|1 418,0,0,0,0,0,0,0,0,1,0,0,0,0,0,419,
scooby_state_401a54|26|1 418,0,0,0,0,0,0,0,0,0,0,0,0,1,0,419,
scooby_state_401a61|39|1 419,0,0,0,0,0,0,0,0,0,0,0,0,0,0,419,
scooby_state_401a61|6|1 419,0,0,0,0,0,0,0,0,0,0,0,0,0,0,419,
scooby_state_401a6f|35|1 419,0,0,0,0,0,0,0,0,0,0,0,0,0,0,419,
scooby_state_401a3c|7|1 415,1,0,0,1,0,0,1,0,0,1,0,0,0,0,419,
scooby_state_401a93|26|1 418,0,0,0,0,0,0,1,0,0,0,0,0,0,0,419,
scooby_state_401a61|10|1 419,0,0,0,0,0,0,0,0,0,0,0,0,0,0,419,
scooby_state_401a54|5|1 419,0,0,0,0,0,0,0,0,0,0,0,0,0,0,419,
scooby_state_401a86|6|1 419,0,0,0,0,0,0,0,0,0,0,0,0,0,0,419,
scooby_state_401a93|39|1 417,0,0,0,0,0,0,1,0,0,1,0,0,0,0,419,
scooby_state_401a93|8|1 418,1,0,0,0,0,0,0,0,0,0,0,0,0,0,419,
scooby_state_401a93|61|1 419,0,0,0,0,0,0,0,0,0,0,0,0,0,0,419,
scooby_state_401a30|21|1 417,0,0,0,0,1,0,0,0,1,0,0,0,0,0,419,
scooby_state_401a6f|11|1 419,0,0,0,0,0,0,0,0,0,0,0,0,0,0,419,
scooby_state_401a54|23|1 419,0,0,0,0,0,0,0,0,0,0,0,0,0,0,419,
scooby_state_401a3c|22|1 418,0,0,0,0,0,1,0,0,0,0,0,0,0,0,419,
scooby_state_401a86|4|1 418,0,0,0,0,0,1,0,0,0,0,0,0,0,0,419,
scooby_state_401a61|5|1 418,0,0,1,0,0,0,0,0,0,0,0,0,0,0,419,
scooby_state_401a54|11|1 418,0,0,0,0,0,0,0,0,0,0,0,0,1,0,419,
scooby_state_401a61|38|1 417,0,0,0,0,0,0,0,0,0,0,1,1,0,0,419,
scooby_state_401a54|43|1 418,0,0,0,0,0,0,0,0,0,0,0,1,0,0,419,
scooby_state_401a93|9|1 418,0,0,0,0,0,0,0,0,0,0,0,0,0,1,419,
scooby_state_401a61|42|1 419,0,0,0,0,0,0,0,0,0,0,0,0,0,0,419,
scooby_state_401a6f|42|1 419,0,0,0,0,0,0,0,0,0,0,0,0,0,0,419,
scooby_state_401a61|34|1 418,0,0,0,0,0,0,0,0,0,0,0,0,1,0,419,
scooby_state_401a54|21|1 419,0,0,0,0,0,0,0,0,0,0,0,0,0,0,419,
scooby_state_401a3c|19|1 419,0,0,0,0,0,0,0,0,0,0,0,0,0,0,419,
scooby_state_401a54|24|1 419,0,0,0,0,0,0,0,0,0,0,0,0,0,0,419,
scooby_state_401a86|61|1 418,0,1,0,0,0,0,0,0,0,0,0,0,0,0,419,
scooby_state_401a3c|13|1 419,0,0,0,0,0,0,0,0,0,0,0,0,0,0,419,
scooby_state_401a86|2|1 418,0,0,0,0,0,0,1,0,0,0,0,0,0,0,419,
scooby_state_401a54|25|1 419,0,0,0,0,0,0,0,0,0,0,0,0,0,0,419,
scooby_state_401a30|18|1 418,0,0,0,0,0,0,0,0,0,1,0,0,0,0,419,
scooby_state_401a30|36|1 418,0,1,0,0,0,0,0,0,0,0,0,0,0,0,419,
scooby_state_401a61|23|1 418,0,0,1,0,0,0,0,0,0,0,0,0,0,0,419,
scooby_state_401a93|44|1 419,0,0,0,0,0,0,0,0,0,0,0,0,0,0,419,
scooby_state_401a30|23|1 419,0,0,0,0,0,0,0,0,0,0,0,0,0,0,419,
scooby_state_401a61|22|1 419,0,0,0,0,0,0,0,0,0,0,0,0,0,0,419,
scooby_state_401a61|8|1 417,0,0,0,0,0,1,0,0,0,0,0,0,0,1,419,
scooby_state_401a54|22|1 418,0,0,0,0,0,0,1,0,0,0,0,0,0,0,419,
scooby_state_401a54|42|1 419,0,0,0,0,0,0,0,0,0,0,0,0,0,0,419,
scooby_state_401a3c|0|0 415,0,0,0,1,0,1,0,1,1,0,0,0,0,0,419,
scooby_state_401a93|22|1 418,0,0,0,0,0,0,0,0,0,0,0,1,0,0,419,
scooby_state_401a3c|11|1 419,0,0,0,0,0,0,0,0,0,0,0,0,0,0,419,
scooby_state_401a30|19|1 418,0,0,0,0,0,0,0,1,0,0,0,0,0,0,419,
scooby_state_401a54|12|1 417,0,0,0,0,0,0,0,0,0,0,1,0,0,1,419,
scooby_state_401a30|11|1 419,0,0,0,0,0,0,0,0,0,0,0,0,0,0,419,
scooby_state_401a6f|3|1 418,0,0,1,0,0,0,0,0,0,0,0,0,0,0,419,
scooby_state_401a86|12|1 419,0,0,0,0,0,0,0,0,0,0,0,0,0,0,419,
scooby_state_401a54|10|1 419,0,0,0,0,0,0,0,0,0,0,0,0,0,0,419,
scooby_state_401a86|19|1 419,0,0,0,0,0,0,0,0,0,0,0,0,0,0,419,
scooby_state_401a86|20|1 416,0,1,0,0,0,0,2,0,0,0,0,0,0,0,419,
scooby_state_401a86|26|1 419,0,0,0,0,0,0,0,0,0,0,0,0,0,0,419,
scooby_state_401a54|19|1 418,0,0,0,0,0,0,0,0,0,0,0,0,0,1,419,
scooby_state_401a30|58|1 418,0,0,0,0,0,0,0,0,0,0,0,0,0,0,418,
scooby_state_401a54|57|1 418,0,0,0,0,0,0,0,0,0,0,0,0,0,0,418,
scooby_state_401a6f|59|1 416,0,0,0,1,1,0,0,0,0,0,0,0,0,0,418,
scooby_state_401a93|51|1 418,0,0,0,0,0,0,0,0,0,0,0,0,0,0,418,
scooby_state_401a3c|55|1 417,0,0,0,0,0,0,0,0,1,0,0,0,0,0,418,
scooby_state_401a93|55|1 418,0,0,0,0,0,0,0,0,0,0,0,0,0,0,418,
scooby_state_401a30|54|1 417,0,1,0,0,0,0,0,0,0,0,0,0,0,0,418,
scooby_state_401a6f|52|1 417,0,1,0,0,0,0,0,0,0,0,0,0,0,0,418,
scooby_state_401a86|45|1 417,0,0,0,0,0,0,0,1,0,0,0,0,0,0,418,
scooby_state_401a6f|60|1 416,0,0,0,0,1,1,0,0,0,0,0,0,0,0,418,
scooby_state_401a6f|58|1 418,0,0,0,0,0,0,0,0,0,0,0,0,0,0,418,
scooby_state_401a30|53|1 418,0,0,0,0,0,0,0,0,0,0,0,0,0,0,418,
scooby_state_401a93|60|1 417,0,0,0,0,1,0,0,0,0,0,0,0,0,0,418,
scooby_state_401a54|58|1 418,0,0,0,0,0,0,0,0,0,0,0,0,0,0,418,
scooby_state_401a86|52|1 418,0,0,0,0,0,0,0,0,0,0,0,0,0,0,418,
scooby_state_401a3c|57|1 418,0,0,0,0,0,0,0,0,0,0,0,0,0,0,418,
scooby_state_401a93|46|1 418,0,0,0,0,0,0,0,0,0,0,0,0,0,0,418,
scooby_state_401a86|51|1 417,0,0,0,0,0,0,0,0,0,0,0,0,0,1,418,
scooby_state_401a61|59|1 417,0,1,0,0,0,0,0,0,0,0,0,0,0,0,418,
scooby_state_401a3c|58|1 417,0,0,0,0,0,0,1,0,0,0,0,0,0,0,418,
scooby_state_401a30|51|1 417,0,0,0,0,0,0,0,0,1,0,0,0,0,0,418,
scooby_state_401a93|50|1 418,0,0,0,0,0,0,0,0,0,0,0,0,0,0,418,
scooby_state_401a3c|50|1 418,0,0,0,0,0,0,0,0,0,0,0,0,0,0,418,
scooby_state_401a30|56|1 417,0,0,0,0,0,0,0,0,0,0,0,0,1,0,418,
scooby_state_401a6f|55|1 418,0,0,0,0,0,0,0,0,0,0,0,0,0,0,418,
scooby_state_401a61|51|1 418,0,0,0,0,0,0,0,0,0,0,0,0,0,0,418,
scooby_state_401a6f|53|1 417,0,0,0,0,0,0,0,0,0,0,0,0,1,0,418,
scooby_state_401a3c|53|1 417,0,0,1,0,0,0,0,0,0,0,0,0,0,0,418,
scooby_state_401a93|56|1 417,1,0,0,0,0,0,0,0,0,0,0,0,0,0,418,
scooby_state_401a86|59|1 417,0,0,0,0,0,0,0,0,0,1,0,0,0,0,418,
scooby_state_401a54|56|1 418,0,0,0,0,0,0,0,0,0,0,0,0,0,0,418,
scooby_state_401a54|53|1 418,0,0,0,0,0,0,0,0,0,0,0,0,0,0,418,
scooby_state_401a61|53|1 416,0,0,0,0,0,0,0,0,0,1,0,0,0,1,418,
scooby_state_401a93|53|1 418,0,0,0,0,0,0,0,0,0,0,0,0,0,0,418,
scooby_state_401a3c|46|1 416,0,0,0,0,0,0,1,0,0,0,0,0,0,1,418,
scooby_state_401a3c|45|1 418,0,0,0,0,0,0,0,0,0,0,0,0,0,0,418,
scooby_state_401a6f|57|1 416,0,0,0,0,0,0,0,1,0,0,0,0,1,0,418,
scooby_state_401a6f|14|1 417,0,0,0,0,0,0,0,0,0,0,0,0,0,1,418,
scooby_state_401a86|50|1 418,0,0,0,0,0,0,0,0,0,0,0,0,0,0,418,
scooby_state_401a93|59|1 418,0,0,0,0,0,0,0,0,0,0,0,0,0,0,418,
scooby_state_401a86|56|1 418,0,0,0,0,0,0,0,0,0,0,0,0,0,0,418,
scooby_state_401a61|55|1 417,0,0,0,0,0,0,1,0,0,0,0,0,0,0,418,
scooby_state_401a30|60|1 416,0,0,0,0,0,0,0,0,0,0,0,2,0,0,418,
scooby_state_401a86|57|1 418,0,0,0,0,0,0,0,0,0,0,0,0,0,0,418,
scooby_state_401a54|59|1 418,0,0,0,0,0,0,0,0,0,0,0,0,0,0,418,
scooby_state_401a61|57|1 416,1,0,0,0,0,0,0,1,0,0,0,0,0,0,418,
scooby_state_401a6f|56|1 416,0,0,1,0,0,0,0,0,0,1,0,0,0,0,418,
scooby_state_401a93|58|1 417,0,0,1,0,0,0,0,0,0,0,0,0,0,0,418,
scooby_state_401a3c|60|1 417,0,1,0,0,0,0,0,0,0,0,0,0,0,0,418,
scooby_state_401a93|54|1 415,1,0,0,0,0,0,1,0,0,1,0,0,0,0,418,
scooby_state_401a86|58|1 418,0,0,0,0,0,0,0,0,0,0,0,0,0,0,418,
scooby_state_401a30|59|1 418,0,0,0,0,0,0,0,0,0,0,0,0,0,0,418,
scooby_state_401a86|60|1 416,0,0,1,0,0,0,0,0,0,0,0,1,0,0,418,
scooby_state_401a3c|52|1 417,0,0,0,0,1,0,0,0,0,0,0,0,0,0,418,
scooby_state_401a61|52|1 417,1,0,0,0,0,0,0,0,0,0,0,0,0,0,418,
scooby_state_401a61|56|1 418,0,0,0,0,0,0,0,0,0,0,0,0,0,0,418,
scooby_state_401a6f|50|1 416,0,0,0,0,0,0,0,0,1,0,0,1,0,0,418,
scooby_state_401a54|52|1 418,0,0,0,0,0,0,0,0,0,0,0,0,0,0,418,
scooby_state_401a54|60|1 417,0,0,0,0,0,0,0,0,0,0,1,0,0,0,418,
scooby_state_401a3c|54|1 416,1,1,0,0,0,0,0,0,0,0,0,0,0,0,418,
scooby_state_401a61|50|1 417,1,0,0,0,0,0,0,0,0,0,0,0,0,0,418,
scooby_state_401a86|55|1 417,0,0,0,0,0,0,0,0,0,0,0,0,0,1,418,
scooby_state_401a54|55|1 418,0,0,0,0,0,0,0,0,0,0,0,0,0,0,418,
scooby_state_401a86|54|1 418,0,0,0,0,0,0,0,0,0,0,0,0,0,0,418,
scooby_state_401a3c|51|1 416,0,0,0,1,0,0,0,0,0,0,1,0,0,0,418,
scooby_state_401a6f|54|1 418,0,0,0,0,0,0,0,0,0,0,0,0,0,0,418,
scooby_state_401a61|54|1 418,0,0,0,0,0,0,0,0,0,0,0,0,0,0,418,
scooby_state_401a54|54|1 418,0,0,0,0,0,0,0,0,0,0,0,0,0,0,418,
scooby_state_401a61|60|1 418,0,0,0,0,0,0,0,0,0,0,0,0,0,0,418,
scooby_state_401a93|52|1 418,0,0,0,0,0,0,0,0,0,0,0,0,0,0,418,
scooby_state_401a30|52|1 417,0,0,0,0,0,0,0,0,0,0,0,0,0,1,418,
scooby_state_401a54|51|1 418,0,0,0,0,0,0,0,0,0,0,0,0,0,0,418,
scooby_state_401a3c|59|1 417,0,0,0,0,0,0,0,0,0,1,0,0,0,0,418,
scooby_state_401a3c|56|1 417,0,0,0,0,0,0,1,0,0,0,0,0,0,0,418,
scooby_state_401a93|57|1 418,0,0,0,0,0,0,0,0,0,0,0,0,0,0,418,
scooby_state_401a93|45|1 418,0,0,0,0,0,0,0,0,0,0,0,0,0,0,418,
scooby_state_401a86|53|1 417,0,0,0,0,0,0,1,0,0,0,0,0,0,0,418,
scooby_state_401a30|57|1 417,1,0,0,0,0,0,0,0,0,0,0,0,0,0,418,
scooby_state_401a30|50|1 417,0,0,1,0,0,0,0,0,0,0,0,0,0,0,418,
scooby_state_401a61|58|1 416,1,0,0,0,0,0,0,0,0,0,0,0,1,0,418,
scooby_state_401a54|50|1 418,0,0,0,0,0,0,0,0,0,0,0,0,0,0,418,
scooby_state_401a30|55|1 417,0,0,0,0,0,0,0,1,0,0,0,0,0,0,418,
scooby_state_401a6f|51|1 418,0,0,0,0,0,0,0,0,0,0,0,0,0,0,418,
scooby_state_401a61|3|1 416,0,0,0,0,0,0,0,0,0,0,0,0,0,1,417,
scooby_state_401a86|17|1 417,0,0,0,0,0,0,0,0,0,0,0,0,0,0,417,
scooby_state_401a61|1|1 417,0,0,0,0,0,0,0,0,0,0,0,0,0,0,417,
scooby_state_401a61|2|1 415,0,2,0,0,0,0,0,0,0,0,0,0,0,0,417,
scooby_state_401a3c|14|1 417,0,0,0,0,0,0,0,0,0,0,0,0,0,0,417,
scooby_state_401a86|46|1 417,0,0,0,0,0,0,0,0,0,0,0,0,0,0,417,
scooby_state_401a6f|62|1 416,0,0,0,0,0,0,1,0,0,0,0,0,0,0,417,
scooby_state_401a3c|62|1 417,0,0,0,0,0,0,0,0,0,0,0,0,0,0,417,
scooby_state_401a30|46|1 417,0,0,0,0,0,0,0,0,0,0,0,0,0,0,417,
scooby_state_401a61|14|1 417,0,0,0,0,0,0,0,0,0,0,0,0,0,0,417,
scooby_state_401a30|14|1 417,0,0,0,0,0,0,0,0,0,0,0,0,0,0,417,
scooby_state_401a86|14|1 417,0,0,0,0,0,0,0,0,0,0,0,0,0,0,417,
scooby_state_401a54|2|1 416,0,0,0,0,0,0,0,0,0,0,0,0,0,0,416,
scooby_state_401a3c|3|1 415,0,0,0,0,0,0,1,0,0,0,0,0,0,0,416,
scooby_state_401a61|46|1 415,0,0,0,0,0,1,0,0,0,0,0,0,0,0,416,
scooby_state_401a86|49|1 415,0,0,0,0,0,0,0,0,0,1,0,0,0,0,416,
scooby_state_401a30|1|1 416,0,0,0,0,0,0,0,0,0,0,0,0,0,0,416,
scooby_state_401a30|3|1 416,0,0,0,0,0,0,0,0,0,0,0,0,0,0,416,
scooby_state_401a54|1|1 416,0,0,0,0,0,0,0,0,0,0,0,0,0,0,416,
scooby_state_401a6f|46|1 415,0,0,0,0,0,0,0,0,1,0,0,0,0,0,416,
scooby_state_401a3c|1|1 416,0,0,0,0,0,0,0,0,0,0,0,0,0,0,416,
scooby_state_401a30|2|1 416,0,0,0,0,0,0,0,0,0,0,0,0,0,0,416,
scooby_state_401a54|3|1 416,0,0,0,0,0,0,0,0,0,0,0,0,0,0,416,
scooby_state_401a3c|2|1 414,1,0,0,0,0,1,0,0,0,0,0,0,0,0,416,
scooby_state_401a30|62|1 415,0,0,0,0,0,0,0,0,0,0,0,0,0,0,415,
scooby_state_401a54|62|1 413,0,0,0,0,0,0,1,0,0,0,0,0,0,0,414,
scooby_state_401a54|14|1 412,0,0,0,1,0,0,0,0,0,0,0,0,0,0,413,
scooby_state_401a54|46|1 412,0,0,0,0,0,0,0,0,0,0,0,0,0,0,412,
scooby_state_401a54|28|1 410,0,0,0,0,0,0,0,1,0,0,0,0,1,0,412,
scooby_state_401a86|16|1 410,0,0,0,0,1,0,0,0,0,0,0,0,0,0,411,
scooby_state_401a86|15|1 410,0,0,0,0,0,0,0,0,0,0,0,0,0,0,410,
scooby_state_401a86|28|1 410,0,0,0,0,0,0,0,0,0,0,0,0,0,0,410,
scooby_state_401a86|33|1 410,0,0,0,0,0,0,0,0,0,0,0,0,0,0,410,
scooby_state_401a6f|49|1 410,0,0,0,0,0,0,0,0,0,0,0,0,0,0,410,
scooby_state_401a54|63|1 409,1,0,0,0,0,0,0,0,0,0,0,0,0,0,410,
scooby_state_401a61|17|1 409,0,0,1,0,0,0,0,0,0,0,0,0,0,0,410,
scooby_state_401a3c|17|1 409,0,0,0,0,0,1,0,0,0,0,0,0,0,0,410,
scooby_state_401a86|63|1 408,0,0,0,0,0,0,0,1,0,1,0,0,0,0,410,
scooby_state_401a3c|15|1 409,0,0,0,0,0,0,0,0,0,0,0,0,0,0,409,
scooby_state_401a30|17|1 409,0,0,0,0,0,0,0,0,0,0,0,0,0,0,409,
scooby_state_401a86|48|1 409,0,0,0,0,0,0,0,0,0,0,0,0,0,0,409,
scooby_state_401a61|49|1 406,0,0,1,0,0,1,0,0,0,0,0,0,0,0,408,
scooby_state_401a54|17|1 405,0,0,0,0,1,0,0,0,0,0,0,1,1,0,408,
scooby_state_401a6f|17|1 405,1,0,0,0,1,0,0,0,0,0,0,0,0,0,407,
scooby_state_401a3c|48|1 407,0,0,0,0,0,0,0,0,0,0,0,0,0,0,407,
scooby_state_401a86|47|1 406,0,0,0,0,0,0,0,0,0,0,0,0,0,0,406,
scooby_state_401a6f|63|1 406,0,0,0,0,0,0,0,0,0,0,0,0,0,0,406,
scooby_state_401a54|49|1 406,0,0,0,0,0,0,0,0,0,0,0,0,0,0,406,
scooby_state_401a93|15|1 406,0,0,0,0,0,0,0,0,0,0,0,0,0,0,406,
scooby_state_401a61|33|1 406,0,0,0,0,0,0,0,0,0,0,0,0,0,0,406,
scooby_state_401a6f|15|1 405,0,0,0,0,0,0,0,0,0,0,0,0,0,0,405,
scooby_state_401a3c|16|1 404,0,0,0,0,0,0,0,0,0,0,0,1,0,0,405,
scooby_state_401a3c|33|1 405,0,0,0,0,0,0,0,0,0,0,0,0,0,0,405,
scooby_state_401a93|49|1 405,0,0,0,0,0,0,0,0,0,0,0,0,0,0,405,
scooby_state_401a3c|49|1 405,0,0,0,0,0,0,0,0,0,0,0,0,0,0,405,
scooby_state_401a30|49|1 405,0,0,0,0,0,0,0,0,0,0,0,0,0,0,405,
scooby_state_401a30|16|1 405,0,0,0,0,0,0,0,0,0,0,0,0,0,0,405,
scooby_state_401a3c|28|1 403,0,0,0,0,0,0,0,0,0,0,0,1,0,0,404,
scooby_state_401a61|48|1 404,0,0,0,0,0,0,0,0,0,0,0,0,0,0,404,
scooby_state_401a54|33|1 401,0,0,0,0,0,1,0,1,0,0,0,0,0,0,403,
scooby_state_401a54|47|1 403,0,0,0,0,0,0,0,0,0,0,0,0,0,0,403,
scooby_state_401a93|33|1 403,0,0,0,0,0,0,0,0,0,0,0,0,0,0,403,
scooby_state_401a6f|33|1 402,0,0,0,0,0,0,0,0,0,0,1,0,0,0,403,
scooby_state_401a54|15|1 403,0,0,0,0,0,0,0,0,0,0,0,0,0,0,403,
scooby_state_401a93|17|1 402,0,0,1,0,0,0,0,0,0,0,0,0,0,0,403,
scooby_state_401a3c|63|1 402,0,0,0,0,0,0,0,0,0,0,1,0,0,0,403,
scooby_state_401a30|33|1 402,0,0,0,0,0,0,0,0,0,0,0,0,0,0,402,
scooby_state_401a93|28|1 401,0,0,0,0,0,0,0,0,0,0,0,0,0,1,402,
scooby_state_401a93|63|1 401,0,0,0,0,0,1,0,0,0,0,0,0,0,0,402,
scooby_state_401a61|16|1 402,0,0,0,0,0,0,0,0,0,0,0,0,0,0,402,
scooby_state_401a93|47|1 401,0,0,0,0,0,0,0,0,0,0,0,0,0,0,401,
scooby_state_401a6f|28|1 399,0,0,0,0,0,0,1,0,0,0,1,0,0,0,401,
scooby_state_401a3c|47|1 400,0,0,0,0,0,0,0,0,0,0,0,1,0,0,401,
scooby_state_401a30|63|1 400,0,0,0,0,0,0,0,0,0,0,0,0,0,0,400,
scooby_state_401a3c|30|1 399,0,0,0,0,0,0,0,0,0,1,0,0,0,0,400,
scooby_state_401a6f|47|1 397,0,0,0,0,0,0,1,0,0,0,0,0,0,0,398,
scooby_state_401a30|48|1 398,0,0,0,0,0,0,0,0,0,0,0,0,0,0,398,
scooby_state_401a6f|16|1 396,0,0,0,0,0,0,0,0,1,0,0,0,0,0,397,
scooby_state_401a61|47|1 396,0,0,0,0,1,0,0,0,0,0,0,0,0,0,397,
scooby_state_401a54|48|1 396,0,0,0,0,0,0,1,0,0,0,0,0,0,0,397,
scooby_state_401a54|16|1 396,0,0,0,0,0,0,0,0,0,0,0,0,0,0,396,
scooby_state_401a61|15|1 395,0,0,0,0,0,0,1,0,0,0,0,0,0,0,396,
scooby_state_401a30|28|1 393,1,0,0,1,0,0,0,0,0,0,1,0,0,0,396,
scooby_state_401a6f|48|1 394,0,0,0,0,0,0,0,0,0,0,0,1,0,0,395,
scooby_state_401a61|28|1 395,0,0,0,0,0,0,0,0,0,0,0,0,0,0,395,
scooby_state_401a86|30|1 393,0,0,0,0,0,1,0,0,0,0,0,0,0,0,394,
scooby_state_401a86|32|1 394,0,0,0,0,0,0,0,0,0,0,0,0,0,0,394,
scooby_state_401a30|15|1 394,0,0,0,0,0,0,0,0,0,0,0,0,0,0,394,
scooby_state_401a61|63|1 393,0,0,0,0,0,0,0,0,0,0,0,0,0,0,393,
scooby_state_401a30|47|1 391,0,0,1,0,1,0,0,0,0,0,0,0,0,0,393,
scooby_state_401a54|30|1 392,0,0,0,0,0,0,0,0,0,0,0,0,0,0,392,
scooby_state_401a61|30|1 390,0,0,0,0,0,0,0,0,0,0,0,0,0,0,390,
scooby_state_401a86|31|1 390,0,0,0,0,0,0,0,0,0,0,0,0,0,0,390,
scooby_state_401a61|32|1 389,0,0,0,0,0,0,0,0,1,0,0,0,0,0,390,
scooby_state_401a3c|32|1 389,0,0,0,0,0,0,0,0,0,0,0,0,0,0,389,
scooby_state_401a6f|32|1 387,0,0,0,0,0,0,0,0,0,0,0,0,0,0,387,
scooby_state_401a93|48|1 387,0,0,0,0,0,0,0,0,0,0,0,0,0,0,387,
scooby_state_401a6f|30|1 386,0,0,0,0,0,0,0,0,0,0,1,0,0,0,387,
scooby_state_401a30|32|1 386,0,0,0,0,0,0,0,0,0,0,0,0,0,0,386,
scooby_state_401a61|31|1 384,0,1,0,0,0,0,0,0,0,0,0,0,0,0,385,
scooby_state_401a93|16|1 383,0,0,0,0,0,1,0,0,0,0,0,0,0,0,384,
scooby_state_401a30|30|1 384,0,0,0,0,0,0,0,0,0,0,0,0,0,0,384,
scooby_state_401a3c|31|1 383,0,0,0,0,0,0,0,0,0,0,0,0,0,0,383,
scooby_state_401a54|31|1 382,0,0,0,0,0,0,0,0,0,0,0,0,0,0,382,
scooby_state_401a93|30|1 380,0,0,0,0,0,0,0,0,0,0,0,0,0,0,380,
scooby_state_401a93|32|1 376,0,0,0,0,0,0,0,0,0,0,0,0,1,0,377,
scooby_state_401a54|32|1 376,0,0,0,0,0,0,0,0,0,0,0,0,0,1,377,
scooby_state_401a30|31|1 375,0,0,0,0,0,0,0,0,0,0,0,0,0,0,375,
scooby_state_401a6f|31|1 371,0,0,0,0,0,0,0,0,0,0,0,0,1,0,372,
scooby_state_401a93|31|1 363,0,0,0,0,0,0,0,0,0,0,0,0,0,0,363,
scooby_state_401ade|26|0 265,0,0,0,0,0,0,0,0,0,0,0,0,0,0,265,
scooby_state_401acd|29|0 177,0,0,0,0,0,0,0,0,0,0,0,0,0,0,177,
scooby_state_401a66|26|0 134,0,0,0,0,0,0,0,0,0,0,0,0,0,0,134,
scooby_state_401a66|27|0 122,0,0,0,0,1,0,0,0,0,0,0,0,0,0,123,
scooby_state_401a4a|29|1 101,0,0,0,0,0,0,0,0,0,0,0,0,0,0,101,
scooby_state_401a34|29|0 95,0,0,0,0,0,0,0,0,0,0,0,0,0,0,95,
scooby_state_401a93|28|0 94,0,0,0,0,0,0,0,0,0,0,0,0,1,0,95,
scooby_state_401a66|27|1 93,0,0,0,0,0,0,0,0,0,0,0,0,0,0,93,
scooby_state_401a30|26|0 87,0,0,0,0,0,0,0,0,0,0,0,0,0,0,87,
scooby_state_401a4a|34|1 86,0,0,0,0,0,0,0,0,0,0,0,0,0,0,86,
scooby_state_401a4a|41|1 85,0,0,0,0,0,0,0,0,0,0,1,0,0,0,86,
scooby_state_401a4a|16|1 86,0,0,0,0,0,0,0,0,0,0,0,0,0,0,86,
scooby_state_401a4a|24|1 86,0,0,0,0,0,0,0,0,0,0,0,0,0,0,86,
scooby_state_401a4a|23|1 86,0,0,0,0,0,0,0,0,0,0,0,0,0,0,86,
scooby_state_401a4a|9|1 86,0,0,0,0,0,0,0,0,0,0,0,0,0,0,86,
scooby_state_401a4a|13|1 85,0,0,0,1,0,0,0,0,0,0,0,0,0,0,86,
scooby_state_401a4a|45|1 86,0,0,0,0,0,0,0,0,0,0,0,0,0,0,86,
scooby_state_401a4a|37|1 86,0,0,0,0,0,0,0,0,0,0,0,0,0,0,86,
scooby_state_401a4a|27|1 85,0,0,0,1,0,0,0,0,0,0,0,0,0,0,86,
scooby_state_401a4a|38|1 86,0,0,0,0,0,0,0,0,0,0,0,0,0,0,86,
scooby_state_401a4a|2|1 86,0,0,0,0,0,0,0,0,0,0,0,0,0,0,86,
scooby_state_401a4a|36|1 84,0,0,0,0,0,0,0,0,0,1,0,0,0,0,85,
scooby_state_401a4a|59|1 84,0,0,0,0,0,0,0,0,0,1,0,0,0,0,85,
scooby_state_401a59|41|1 85,0,0,0,0,0,0,0,0,0,0,0,0,0,0,85,
scooby_state_401a59|40|1 85,0,0,0,0,0,0,0,0,0,0,0,0,0,0,85,
scooby_state_401a4a|22|1 84,0,0,0,0,1,0,0,0,0,0,0,0,0,0,85,
scooby_state_401a4a|33|1 85,0,0,0,0,0,0,0,0,0,0,0,0,0,0,85,
scooby_state_401a4a|18|1 85,0,0,0,0,0,0,0,0,0,0,0,0,0,0,85,
scooby_state_401a4a|61|1 85,0,0,0,0,0,0,0,0,0,0,0,0,0,0,85,
scooby_state_401a4a|7|1 85,0,0,0,0,0,0,0,0,0,0,0,0,0,0,85,
scooby_state_401a4a|17|1 85,0,0,0,0,0,0,0,0,0,0,0,0,0,0,85,
scooby_state_401a4a|3|1 85,0,0,0,0,0,0,0,0,0,0,0,0,0,0,85,
scooby_state_401a4a|4|1 84,0,0,0,0,0,0,0,0,0,0,0,0,0,1,85,
scooby_state_401a4a|5|1 85,0,0,0,0,0,0,0,0,0,0,0,0,0,0,85,
scooby_state_401a4a|10|1 85,0,0,0,0,0,0,0,0,0,0,0,0,0,0,85,
scooby_state_401a4a|12|1 85,0,0,0,0,0,0,0,0,0,0,0,0,0,0,85,
scooby_state_401a4a|1|1 85,0,0,0,0,0,0,0,0,0,0,0,0,0,0,85,
scooby_state_401a4a|21|1 85,0,0,0,0,0,0,0,0,0,0,0,0,0,0,85,
scooby_state_401a4a|11|1 84,0,0,0,0,0,0,0,0,0,0,0,0,0,1,85,
scooby_state_401a59|39|1 85,0,0,0,0,0,0,0,0,0,0,0,0,0,0,85,
scooby_state_401a4a|26|1 85,0,0,0,0,0,0,0,0,0,0,0,0,0,0,85,
scooby_state_401a4a|35|1 85,0,0,0,0,0,0,0,0,0,0,0,0,0,0,85,
scooby_state_401a4a|32|1 85,0,0,0,0,0,0,0,0,0,0,0,0,0,0,85,
scooby_state_401a4a|19|1 84,0,0,0,0,0,0,0,0,0,0,0,0,0,1,85,
scooby_state_401a4a|52|1 85,0,0,0,0,0,0,0,0,0,0,0,0,0,0,85,
scooby_state_401a4a|8|1 84,1,0,0,0,0,0,0,0,0,0,0,0,0,0,85,
scooby_state_401a4a|6|1 85,0,0,0,0,0,0,0,0,0,0,0,0,0,0,85,
scooby_state_401a4a|40|1 85,0,0,0,0,0,0,0,0,0,0,0,0,0,0,85,
scooby_state_401a4a|42|1 85,0,0,0,0,0,0,0,0,0,0,0,0,0,0,85,
scooby_state_401a4a|28|1 85,0,0,0,0,0,0,0,0,0,0,0,0,0,0,85,
scooby_state_401a4a|39|1 85,0,0,0,0,0,0,0,0,0,0,0,0,0,0,85,
scooby_state_401a4a|25|1 85,0,0,0,0,0,0,0,0,0,0,0,0,0,0,85,
scooby_state_401a4a|44|1 85,0,0,0,0,0,0,0,0,0,0,0,0,0,0,85,
scooby_state_401a4a|43|1 84,0,1,0,0,0,0,0,0,0,0,0,0,0,0,85,
scooby_state_401a4a|20|1 85,0,0,0,0,0,0,0,0,0,0,0,0,0,0,85,
scooby_state_401a59|22|1 84,0,0,0,0,0,0,0,0,0,0,0,0,0,0,84,
scooby_state_401a66|50|1 84,0,0,0,0,0,0,0,0,0,0,0,0,0,0,84,
scooby_state_401a66|49|1 84,0,0,0,0,0,0,0,0,0,0,0,0,0,0,84,
scooby_state_401a59|16|1 84,0,0,0,0,0,0,0,0,0,0,0,0,0,0,84,
scooby_state_401a66|16|1 84,0,0,0,0,0,0,0,0,0,0,0,0,0,0,84,
scooby_state_401a98|51|1 84,0,0,0,0,0,0,0,0,0,0,0,0,0,0,84,
scooby_state_401a59|9|1 84,0,0,0,0,0,0,0,0,0,0,0,0,0,0,84,
scooby_state_401a66|10|1 84,0,0,0,0,0,0,0,0,0,0,0,0,0,0,84,
scooby_state_401a98|13|1 84,0,0,0,0,0,0,0,0,0,0,0,0,0,0,84,
scooby_state_401a66|9|1 84,0,0,0,0,0,0,0,0,0,0,0,0,0,0,84,
scooby_state_401a59|34|1 84,0,0,0,0,0,0,0,0,0,0,0,0,0,0,84,
scooby_state_401a66|33|1 84,0,0,0,0,0,0,0,0,0,0,0,0,0,0,84,
scooby_state_401a66|23|1 84,0,0,0,0,0,0,0,0,0,0,0,0,0,0,84,
scooby_state_401a59|21|1 83,0,0,0,0,1,0,0,0,0,0,0,0,0,0,84,
scooby_state_401a66|15|1 83,1,0,0,0,0,0,0,0,0,0,0,0,0,0,84,
scooby_state_401a66|28|1 84,0,0,0,0,0,0,0,0,0,0,0,0,0,0,84,
scooby_state_401a98|12|1 81,0,0,1,1,0,0,0,0,0,0,0,0,0,1,84,
scooby_state_401a66|34|1 84,0,0,0,0,0,0,0,0,0,0,0,0,0,0,84,
scooby_state_401a98|24|1 84,0,0,0,0,0,0,0,0,0,0,0,0,0,0,84,
scooby_state_401a98|32|1 84,0,0,0,0,0,0,0,0,0,0,0,0,0,0,84,
scooby_state_401a98|25|1 84,0,0,0,0,0,0,0,0,0,0,0,0,0,0,84,
scooby_state_401a98|60|1 84,0,0,0,0,0,0,0,0,0,0,0,0,0,0,84,
scooby_state_401a66|41|1 84,0,0,0,0,0,0,0,0,0,0,0,0,0,0,84,
scooby_state_401a98|56|1 84,0,0,0,0,0,0,0,0,0,0,0,0,0,0,84,
scooby_state_401a66|53|1 84,0,0,0,0,0,0,0,0,0,0,0,0,0,0,84,
scooby_state_401a66|30|1 83,0,0,0,0,0,0,0,0,0,1,0,0,0,0,84,
scooby_state_401a98|31|1 84,0,0,0,0,0,0,0,0,0,0,0,0,0,0,84,
scooby_state_401a98|9|1 84,0,0,0,0,0,0,0,0,0,0,0,0,0,0,84,
scooby_state_401a98|1|1 84,0,0,0,0,0,0,0,0,0,0,0,0,0,0,84,
scooby_state_401a66|17|1 84,0,0,0,0,0,0,0,0,0,0,0,0,0,0,84,
scooby_state_401a66|32|1 84,0,0,0,0,0,0,0,0,0,0,0,0,0,0,84,
scooby_state_401a98|8|1 84,0,0,0,0,0,0,0,0,0,0,0,0,0,0,84,
scooby_state_401a66|54|1 84,0,0,0,0,0,0,0,0,0,0,0,0,0,0,84,
scooby_state_401a59|48|1 82,1,0,0,0,0,0,0,0,0,0,0,0,1,0,84,
scooby_state_401a59|26|1 84,0,0,0,0,0,0,0,0,0,0,0,0,0,0,84,
scooby_state_401a59|7|1 84,0,0,0,0,0,0,0,0,0,0,0,0,0,0,84,
scooby_state_401a59|10|1 83,0,0,0,1,0,0,0,0,0,0,0,0,0,0,84,
scooby_state_401a59|27|1 84,0,0,0,0,0,0,0,0,0,0,0,0,0,0,84,
scooby_state_401a66|51|1 84,0,0,0,0,0,0,0,0,0,0,0,0,0,0,84,
scooby_state_401a59|24|1 84,0,0,0,0,0,0,0,0,0,0,0,0,0,0,84,
scooby_state_401a98|16|1 84,0,0,0,0,0,0,0,0,0,0,0,0,0,0,84,
scooby_state_401a59|3|1 84,0,0,0,0,0,0,0,0,0,0,0,0,0,0,84,
scooby_state_401a59|13|1 84,0,0,0,0,0,0,0,0,0,0,0,0,0,0,84,
scooby_state_401a66|29|1 84,0,0,0,0,0,0,0,0,0,0,0,0,0,0,84,
scooby_state_401a8b|58|1 83,0,0,0,0,0,1,0,0,0,0,0,0,0,0,84,
scooby_state_401a59|1|1 83,0,0,0,0,0,0,1,0,0,0,0,0,0,0,84,
scooby_state_401a66|40|1 84,0,0,0,0,0,0,0,0,0,0,0,0,0,0,84,
scooby_state_401a98|58|1 84,0,0,0,0,0,0,0,0,0,0,0,0,0,0,84,
scooby_state_401a66|35|1 83,0,0,0,0,0,0,0,0,1,0,0,0,0,0,84,
scooby_state_401a4a|48|1 84,0,0,0,0,0,0,0,0,0,0,0,0,0,0,84,
scooby_state_401a59|44|1 84,0,0,0,0,0,0,0,0,0,0,0,0,0,0,84,
scooby_state_401a98|5|1 83,0,1,0,0,0,0,0,0,0,0,0,0,0,0,84,
scooby_state_401a98|33|1 84,0,0,0,0,0,0,0,0,0,0,0,0,0,0,84,
scooby_state_401a66|20|1 84,0,0,0,0,0,0,0,0,0,0,0,0,0,0,84,
scooby_state_401a59|46|1 84,0,0,0,0,0,0,0,0,0,0,0,0,0,0,84,
scooby_state_401a98|11|1 83,0,0,0,1,0,0,0,0,0,0,0,0,0,0,84,
scooby_state_401a59|4|1 84,0,0,0,0,0,0,0,0,0,0,0,0,0,0,84,
scooby_state_401a59|11|1 84,0,0,0,0,0,0,0,0,0,0,0,0,0,0,84,
scooby_state_401a66|36|1 84,0,0,0,0,0,0,0,0,0,0,0,0,0,0,84,
scooby_state_401a98|28|1 84,0,0,0,0,0,0,0,0,0,0,0,0,0,0,84,
scooby_state_401a4a|54|1 84,0,0,0,0,0,0,0,0,0,0,0,0,0,0,84,
scooby_state_401a4a|50|1 84,0,0,0,0,0,0,0,0,0,0,0,0,0,0,84,
scooby_state_401a66|52|1 83,0,0,0,0,0,0,0,1,0,0,0,0,0,0,84,
scooby_state_401a66|11|1 84,0,0,0,0,0,0,0,0,0,0,0,0,0,0,84,
scooby_state_401a66|47|1 84,0,0,0,0,0,0,0,0,0,0,0,0,0,0,84,
scooby_state_401a66|18|1 84,0,0,0,0,0,0,0,0,0,0,0,0,0,0,84,
scooby_state_401a98|4|1 84,0,0,0,0,0,0,0,0,0,0,0,0,0,0,84,
scooby_state_401a59|8|1 83,0,0,0,0,0,0,0,1,0,0,0,0,0,0,84,
scooby_state_401a59|29|1 83,0,0,0,0,0,0,0,0,0,0,0,1,0,0,84,
scooby_state_401a59|15|1 84,0,0,0,0,0,0,0,0,0,0,0,0,0,0,84,
scooby_state_401a98|14|1 84,0,0,0,0,0,0,0,0,0,0,0,0,0,0,84,
scooby_state_401a59|14|1 83,0,0,0,0,0,0,0,0,0,0,0,1,0,0,84,
scooby_state_401a93|26|0 84,0,0,0,0,0,0,0,0,0,0,0,0,0,0,84,
scooby_state_401a98|53|1 84,0,0,0,0,0,0,0,0,0,0,0,0,0,0,84,
scooby_state_401a59|36|1 84,0,0,0,0,0,0,0,0,0,0,0,0,0,0,84,
scooby_state_401a4a|53|1 84,0,0,0,0,0,0,0,0,0,0,0,0,0,0,84,
scooby_state_401a66|22|1 84,0,0,0,0,0,0,0,0,0,0,0,0,0,0,84,
scooby_state_401a98|2|1 84,0,0,0,0,0,0,0,0,0,0,0,0,0,0,84,
scooby_state_401a66|42|1 84,0,0,0,0,0,0,0,0,0,0,0,0,0,0,84,
scooby_state_401a59|47|1 84,0,0,0,0,0,0,0,0,0,0,0,0,0,0,84,
scooby_state_401a98|21|1 84,0,0,0,0,0,0,0,0,0,0,0,0,0,0,84,
scooby_state_401a98|55|1 84,0,0,0,0,0,0,0,0,0,0,0,0,0,0,84,
scooby_state_401a59|17|1 84,0,0,0,0,0,0,0,0,0,0,0,0,0,0,84,
scooby_state_401a4a|55|1 84,0,0,0,0,0,0,0,0,0,0,0,0,0,0,84,
scooby_state_401a98|54|1 84,0,0,0,0,0,0,0,0,0,0,0,0,0,0,84,
scooby_state_401a66|24|1 84,0,0,0,0,0,0,0,0,0,0,0,0,0,0,84,
scooby_state_401a98|52|1 84,0,0,0,0,0,0,0,0,0,0,0,0,0,0,84,
scooby_state_401a4a|49|1 84,0,0,0,0,0,0,0,0,0,0,0,0,0,0,84,
scooby_state_401a98|20|1 84,0,0,0,0,0,0,0,0,0,0,0,0,0,0,84,
scooby_state_401a4a|51|1 84,0,0,0,0,0,0,0,0,0,0,0,0,0,0,84,
scooby_state_401a59|12|1 84,0,0,0,0,0,0,0,0,0,0,0,0,0,0,84,
scooby_state_401a98|57|1 82,0,0,0,0,0,0,0,0,0,1,0,0,1,0,84,
scooby_state_401a59|5|1 84,0,0,0,0,0,0,0,0,0,0,0,0,0,0,84,
scooby_state_401a66|8|1 84,0,0,0,0,0,0,0,0,0,0,0,0,0,0,84,
scooby_state_401a59|25|1 84,0,0,0,0,0,0,0,0,0,0,0,0,0,0,84,
scooby_state_401a98|15|1 83,0,0,0,0,0,0,0,0,0,0,1,0,0,0,84,
scooby_state_401a59|30|1 83,1,0,0,0,0,0,0,0,0,0,0,0,0,0,84,
scooby_state_401a59|37|1 83,0,1,0,0,0,0,0,0,0,0,0,0,0,0,84,
scooby_state_401a66|39|1 84,0,0,0,0,0,0,0,0,0,0,0,0,0,0,84,
scooby_state_401a98|7|1 84,0,0,0,0,0,0,0,0,0,0,0,0,0,0,84,
scooby_state_401a4a|58|1 83,0,0,0,1,0,0,0,0,0,0,0,0,0,0,84,
scooby_state_401a98|61|1 84,0,0,0,0,0,0,0,0,0,0,0,0,0,0,84,
scooby_state_401a66|45|1 84,0,0,0,0,0,0,0,0,0,0,0,0,0,0,84,
scooby_state_401a98|22|1 84,0,0,0,0,0,0,0,0,0,0,0,0,0,0,84,
scooby_state_401a66|48|1 84,0,0,0,0,0,0,0,0,0,0,0,0,0,0,84,
scooby_state_401a98|17|1 84,0,0,0,0,0,0,0,0,0,0,0,0,0,0,84,
scooby_state_401a59|33|1 84,0,0,0,0,0,0,0,0,0,0,0,0,0,0,84,
scooby_state_401a98|27|1 84,0,0,0,0,0,0,0,0,0,0,0,0,0,0,84,
scooby_state_401a66|26|1 84,0,0,0,0,0,0,0,0,0,0,0,0,0,0,84,
scooby_state_401a59|28|1 83,0,0,0,0,0,0,0,0,1,0,0,0,0,0,84,
scooby_state_401a66|37|1 84,0,0,0,0,0,0,0,0,0,0,0,0,0,0,84,
scooby_state_401a66|13|1 84,0,0,0,0,0,0,0,0,0,0,0,0,0,0,84,
scooby_state_401a59|45|1 84,0,0,0,0,0,0,0,0,0,0,0,0,0,0,84,
scooby_state_401a59|6|1 84,0,0,0,0,0,0,0,0,0,0,0,0,0,0,84,
scooby_state_401a66|38|1 84,0,0,0,0,0,0,0,0,0,0,0,0,0,0,84,
scooby_state_401a66|21|1 84,0,0,0,0,0,0,0,0,0,0,0,0,0,0,84,
scooby_state_401a98|29|1 84,0,0,0,0,0,0,0,0,0,0,0,0,0,0,84,
scooby_state_401a59|35|1 84,0,0,0,0,0,0,0,0,0,0,0,0,0,0,84,
scooby_state_401a4a|56|1 84,0,0,0,0,0,0,0,0,0,0,0,0,0,0,84,
scooby_state_401a59|43|1 84,0,0,0,0,0,0,0,0,0,0,0,0,0,0,84,
scooby_state_401a66|43|1 83,0,0,0,0,1,0,0,0,0,0,0,0,0,0,84,
scooby_state_401a98|10|1 84,0,0,0,0,0,0,0,0,0,0,0,0,0,0,84,
scooby_state_401a98|18|1 84,0,0,0,0,0,0,0,0,0,0,0,0,0,0,84,
scooby_state_401a98|19|1 84,0,0,0,0,0,0,0,0,0,0,0,0,0,0,84,
scooby_state_401a98|3|1 84,0,0,0,0,0,0,0,0,0,0,0,0,0,0,84,
scooby_state_401a59|19|1 84,0,0,0,0,0,0,0,0,0,0,0,0,0,0,84,
scooby_state_401a98|62|1 84,0,0,0,0,0,0,0,0,0,0,0,0,0,0,84,
scooby_state_401a66|44|1 84,0,0,0,0,0,0,0,0,0,0,0,0,0,0,84,
scooby_state_401a98|34|1 84,0,0,0,0,0,0,0,0,0,0,0,0,0,0,84,
scooby_state_401a59|42|1 84,0,0,0,0,0,0,0,0,0,0,0,0,0,0,84,
scooby_state_401a66|46|1 84,0,0,0,0,0,0,0,0,0,0,0,0,0,0,84,
scooby_state_401a59|20|1 84,0,0,0,0,0,0,0,0,0,0,0,0,0,0,84,
scooby_state_401a4a|60|1 84,0,0,0,0,0,0,0,0,0,0,0,0,0,0,84,
scooby_state_401a98|6|1 84,0,0,0,0,0,0,0,0,0,0,0,0,0,0,84,
scooby_state_401a4a|57|1 84,0,0,0,0,0,0,0,0,0,0,0,0,0,0,84,
scooby_state_401a98|23|1 84,0,0,0,0,0,0,0,0,0,0,0,0,0,0,84,
scooby_state_401a98|63|1 84,0,0,0,0,0,0,0,0,0,0,0,0,0,0,84,
scooby_state_401a59|2|1 84,0,0,0,0,0,0,0,0,0,0,0,0,0,0,84,
scooby_state_401a98|26|1 83,0,0,0,0,0,0,0,0,1,0,0,0,0,0,84,
scooby_state_401a66|55|1 83,0,0,0,0,0,0,0,0,0,0,0,1,0,0,84,
scooby_state_401a59|0|0 84,0,0,0,0,0,0,0,0,0,0,0,0,0,0,84,
scooby_state_401a59|18|1 83,0,0,0,0,1,0,0,0,0,0,0,0,0,0,84,
scooby_state_401a66|14|1 84,0,0,0,0,0,0,0,0,0,0,0,0,0,0,84,
scooby_state_401a66|31|1 83,0,0,1,0,0,0,0,0,0,0,0,0,0,0,84,
scooby_state_401a59|32|1 84,0,0,0,0,0,0,0,0,0,0,0,0,0,0,84,
scooby_state_401a66|25|1 84,0,0,0,0,0,0,0,0,0,0,0,0,0,0,84,
scooby_state_401a59|23|1 84,0,0,0,0,0,0,0,0,0,0,0,0,0,0,84,
scooby_state_401a59|38|1 84,0,0,0,0,0,0,0,0,0,0,0,0,0,0,84,
scooby_state_401a98|30|1 84,0,0,0,0,0,0,0,0,0,0,0,0,0,0,84,
scooby_state_401a59|31|1 84,0,0,0,0,0,0,0,0,0,0,0,0,0,0,84,
scooby_state_401a66|12|1 84,0,0,0,0,0,0,0,0,0,0,0,0,0,0,84,
scooby_state_401a66|19|1 83,0,0,0,0,0,0,0,0,0,0,1,0,0,0,84,
scooby_state_401a98|59|1 83,0,0,0,0,0,0,0,0,0,1,0,0,0,0,84,
scooby_state_401a66|59|1 83,0,0,0,0,0,0,0,0,0,0,0,0,0,0,83,
scooby_state_401a59|63|1 83,0,0,0,0,0,0,0,0,0,0,0,0,0,0,83,
scooby_state_401a8b|0|-63 83,0,0,0,0,0,0,0,0,0,0,0,0,0,0,83,
scooby_state_401a8b|21|1 83,0,0,0,0,0,0,0,0,0,0,0,0,0,0,83,
scooby_state_401a8b|60|1 83,0,0,0,0,0,0,0,0,0,0,0,0,0,0,83,
scooby_state_401a98|49|1 82,0,0,0,0,1,0,0,0,0,0,0,0,0,0,83,
scooby_state_401a8b|32|1 83,0,0,0,0,0,0,0,0,0,0,0,0,0,0,83,
scooby_state_401a66|1|1 83,0,0,0,0,0,0,0,0,0,0,0,0,0,0,83,
scooby_state_401a8b|8|1 83,0,0,0,0,0,0,0,0,0,0,0,0,0,0,83,
scooby_state_401a8b|59|1 82,0,0,0,0,0,0,0,0,0,1,0,0,0,0,83,
scooby_state_401a8b|36|1 83,0,0,0,0,0,0,0,0,0,0,0,0,0,0,83,
scooby_state_401a66|0|0 83,0,0,0,0,0,0,0,0,0,0,0,0,0,0,83,
scooby_state_401a8b|11|1 83,0,0,0,0,0,0,0,0,0,0,0,0,0,0,83,
scooby_state_401a8b|17|1 83,0,0,0,0,0,0,0,0,0,0,0,0,0,0,83,
scooby_state_401a98|37|1 83,0,0,0,0,0,0,0,0,0,0,0,0,0,0,83,
scooby_state_401a8b|7|1 81,0,0,0,1,0,0,0,0,1,0,0,0,0,0,83,
scooby_state_401a4a|0|-63 83,0,0,0,0,0,0,0,0,0,0,0,0,0,0,83,
scooby_state_401a8b|15|1 83,0,0,0,0,0,0,0,0,0,0,0,0,0,0,83,
scooby_state_401a8b|29|1 83,0,0,0,0,0,0,0,0,0,0,0,0,0,0,83,
scooby_state_401a8b|13|1 83,0,0,0,0,0,0,0,0,0,0,0,0,0,0,83,
scooby_state_401a66|62|1 81,0,0,0,1,0,0,0,0,1,0,0,0,0,0,83,
scooby_state_401a98|35|1 82,0,0,0,0,0,0,0,0,0,1,0,0,0,0,83,
scooby_state_401a66|57|1 82,0,0,0,0,0,0,0,1,0,0,0,0,0,0,83,
scooby_state_401a66|60|1 83,0,0,0,0,0,0,0,0,0,0,0,0,0,0,83,
scooby_state_401a8b|28|1 82,0,0,0,0,0,0,0,0,0,0,1,0,0,0,83,
scooby_state_401a98|47|1 83,0,0,0,0,0,0,0,0,0,0,0,0,0,0,83,
scooby_state_401a8b|18|1 83,0,0,0,0,0,0,0,0,0,0,0,0,0,0,83,
scooby_state_401a8b|61|1 83,0,0,0,0,0,0,0,0,0,0,0,0,0,0,83,
scooby_state_401a8b|14|1 82,1,0,0,0,0,0,0,0,0,0,0,0,0,0,83,
scooby_state_401a59|62|1 82,0,0,0,0,1,0,0,0,0,0,0,0,0,0,83,
scooby_state_401a8b|33|1 83,0,0,0,0,0,0,0,0,0,0,0,0,0,0,83,
scooby_state_401a66|61|1 83,0,0,0,0,0,0,0,0,0,0,0,0,0,0,83,
scooby_state_401a98|39|1 83,0,0,0,0,0,0,0,0,0,0,0,0,0,0,83,
scooby_state_401a66|6|1 83,0,0,0,0,0,0,0,0,0,0,0,0,0,0,83,
scooby_state_401a8b|6|1 83,0,0,0,0,0,0,0,0,0,0,0,0,0,0,83,
scooby_state_401a8b|62|1 83,0,0,0,0,0,0,0,0,0,0,0,0,0,0,83,
scooby_state_401a8b|10|1 83,0,0,0,0,0,0,0,0,0,0,0,0,0,0,83,
scooby_state_401a8b|4|1 83,0,0,0,0,0,0,0,0,0,0,0,0,0,0,83,
scooby_state_401a66|58|1 83,0,0,0,0,0,0,0,0,0,0,0,0,0,0,83,
scooby_state_401a98|36|1 83,0,0,0,0,0,0,0,0,0,0,0,0,0,0,83,
scooby_state_401a8b|5|1 83,0,0,0,0,0,0,0,0,0,0,0,0,0,0,83,
scooby_state_401a98|46|1 83,0,0,0,0,0,0,0,0,0,0,0,0,0,0,83,
scooby_state_401a8b|56|1 83,0,0,0,0,0,0,0,0,0,0,0,0,0,0,83,
scooby_state_401a8b|40|1 83,0,0,0,0,0,0,0,0,0,0,0,0,0,0,83,
scooby_state_401a59|54|1 83,0,0,0,0,0,0,0,0,0,0,0,0,0,0,83,
scooby_state_401a8b|35|1 83,0,0,0,0,0,0,0,0,0,0,0,0,0,0,83,
scooby_state_401a8b|20|1 82,0,0,1,0,0,0,0,0,0,0,0,0,0,0,83,
scooby_state_401a66|63|1 83,0,0,0,0,0,0,0,0,0,0,0,0,0,0,83,
scooby_state_401a8b|26|1 83,0,0,0,0,0,0,0,0,0,0,0,0,0,0,83,
scooby_state_401a98|50|1 83,0,0,0,0,0,0,0,0,0,0,0,0,0,0,83,
scooby_state_401a59|57|1 83,0,0,0,0,0,0,0,0,0,0,0,0,0,0,83,
scooby_state_401a59|60|1 83,0,0,0,0,0,0,0,0,0,0,0,0,0,0,83,
scooby_state_401a98|41|1 83,0,0,0,0,0,0,0,0,0,0,0,0,0,0,83,
scooby_state_401a66|5|1 83,0,0,0,0,0,0,0,0,0,0,0,0,0,0,83,
scooby_state_401a8b|57|1 83,0,0,0,0,0,0,0,0,0,0,0,0,0,0,83,
scooby_state_401a8b|63|1 83,0,0,0,0,0,0,0,0,0,0,0,0,0,0,83,
scooby_state_401a98|38|1 83,0,0,0,0,0,0,0,0,0,0,0,0,0,0,83,
scooby_state_401a8b|3|1 83,0,0,0,0,0,0,0,0,0,0,0,0,0,0,83,
scooby_state_401a8b|12|1 83,0,0,0,0,0,0,0,0,0,0,0,0,0,0,83,
scooby_state_401a8b|22|1 83,0,0,0,0,0,0,0,0,0,0,0,0,0,0,83,
scooby_state_401a59|61|1 83,0,0,0,0,0,0,0,0,0,0,0,0,0,0,83,
scooby_state_401a59|55|1 83,0,0,0,0,0,0,0,0,0,0,0,0,0,0,83,
scooby_state_401a98|48|1 83,0,0,0,0,0,0,0,0,0,0,0,0,0,0,83,
scooby_state_401a66|4|1 83,0,0,0,0,0,0,0,0,0,0,0,0,0,0,83,
scooby_state_401a66|3|1 83,0,0,0,0,0,0,0,0,0,0,0,0,0,0,83,
scooby_state_401a59|59|1 83,0,0,0,0,0,0,0,0,0,0,0,0,0,0,83,
scooby_state_401a8b|39|1 83,0,0,0,0,0,0,0,0,0,0,0,0,0,0,83,
scooby_state_401a59|58|1 83,0,0,0,0,0,0,0,0,0,0,0,0,0,0,83,
scooby_state_401a98|44|1 83,0,0,0,0,0,0,0,0,0,0,0,0,0,0,83,
scooby_state_401a8b|19|1 83,0,0,0,0,0,0,0,0,0,0,0,0,0,0,83,
scooby_state_401a66|7|1 83,0,0,0,0,0,0,0,0,0,0,0,0,0,0,83,
scooby_state_401a8b|25|1 83,0,0,0,0,0,0,0,0,0,0,0,0,0,0,83,
scooby_state_401a66|2|1 82,0,0,0,0,0,0,0,0,0,0,0,0,1,0,83,
scooby_state_401a98|45|1 82,0,0,0,0,0,0,0,0,0,0,0,1,0,0,83,
scooby_state_401a98|43|1 83,0,0,0,0,0,0,0,0,0,0,0,0,0,0,83,
scooby_state_401a98|40|1 82,0,0,1,0,0,0,0,0,0,0,0,0,0,0,83,
scooby_state_401a98|42|1 83,0,0,0,0,0,0,0,0,0,0,0,0,0,0,83,
scooby_state_401a66|56|1 83,0,0,0,0,0,0,0,0,0,0,0,0,0,0,83,
scooby_state_401a59|56|1 83,0,0,0,0,0,0,0,0,0,0,0,0,0,0,83,
scooby_state_401a8b|1|1 83,0,0,0,0,0,0,0,0,0,0,0,0,0,0,83,
scooby_state_401a59|49|1 82,0,0,0,0,0,0,0,0,0,0,0,0,0,0,82,
scooby_state_401a59|51|1 82,0,0,0,0,0,0,0,0,0,0,0,0,0,0,82,
scooby_state_401a8b|54|1 82,0,0,0,0,0,0,0,0,0,0,0,0,0,0,82,
scooby_state_401a8b|23|1 82,0,0,0,0,0,0,0,0,0,0,0,0,0,0,82,
scooby_state_401a8b|30|1 82,0,0,0,0,0,0,0,0,0,0,0,0,0,0,82,
scooby_state_401a59|52|1 82,0,0,0,0,0,0,0,0,0,0,0,0,0,0,82,
scooby_state_401a8b|27|1 82,0,0,0,0,0,0,0,0,0,0,0,0,0,0,82,
scooby_state_401a59|53|1 82,0,0,0,0,0,0,0,0,0,0,0,0,0,0,82,
scooby_state_401a98|0|0 82,0,0,0,0,0,0,0,0,0,0,0,0,0,0,82,
scooby_state_401a8b|24|1 82,0,0,0,0,0,0,0,0,0,0,0,0,0,0,82,
scooby_state_401a8b|16|1 81,0,0,0,1,0,0,0,0,0,0,0,0,0,0,82,
scooby_state_401a8b|34|1 82,0,0,0,0,0,0,0,0,0,0,0,0,0,0,82,
scooby_state_401a8b|43|1 82,0,0,0,0,0,0,0,0,0,0,0,0,0,0,82,
scooby_state_401a8b|51|1 82,0,0,0,0,0,0,0,0,0,0,0,0,0,0,82,
scooby_state_401a59|50|1 82,0,0,0,0,0,0,0,0,0,0,0,0,0,0,82,
scooby_state_401a8b|44|1 82,0,0,0,0,0,0,0,0,0,0,0,0,0,0,82,
scooby_state_401a8b|55|1 82,0,0,0,0,0,0,0,0,0,0,0,0,0,0,82,
scooby_state_401a8b|50|1 82,0,0,0,0,0,0,0,0,0,0,0,0,0,0,82,
scooby_state_401a8b|49|1 81,0,0,0,0,0,0,0,0,0,0,0,0,0,1,82,
scooby_state_401a8b|38|1 82,0,0,0,0,0,0,0,0,0,0,0,0,0,0,82,
scooby_state_401a8b|31|1 82,0,0,0,0,0,0,0,0,0,0,0,0,0,0,82,
scooby_state_401a8b|2|1 82,0,0,0,0,0,0,0,0,0,0,0,0,0,0,82,
scooby_state_401a8b|53|1 82,0,0,0,0,0,0,0,0,0,0,0,0,0,0,82,
scooby_state_401a8b|9|1 82,0,0,0,0,0,0,0,0,0,0,0,0,0,0,82,
scooby_state_401a93|29|0 81,1,0,0,0,0,0,0,0,0,0,0,0,0,0,82,
scooby_state_401a8b|42|1 82,0,0,0,0,0,0,0,0,0,0,0,0,0,0,82,
scooby_state_401a8b|37|1 82,0,0,0,0,0,0,0,0,0,0,0,0,0,0,82,
scooby_state_401a8b|41|1 82,0,0,0,0,0,0,0,0,0,0,0,0,0,0,82,
scooby_state_401a8b|48|1 81,0,0,0,0,0,0,0,0,0,0,0,0,0,0,81,
scooby_state_401a8b|52|1 80,0,0,0,0,0,0,0,0,0,0,0,0,0,1,81,
scooby_state_401a8b|47|1 81,0,0,0,0,0,0,0,0,0,0,0,0,0,0,81,
scooby_state_401a8b|45|1 81,0,0,0,0,0,0,0,0,0,0,0,0,0,0,81,
scooby_state_401a8b|46|1 81,0,0,0,0,0,0,0,0,0,0,0,0,0,0,81,
scooby_state_401c0a|22|-1 79,0,0,0,0,0,0,0,0,0,0,0,0,0,0,79,
scooby_state_401a7c|27|0 18,59,0,0,0,0,0,0,0,0,0,0,0,0,0,77,
scooby_state_401a34|29|1 77,0,0,0,0,0,0,0,0,0,0,0,0,0,0,77,
scooby_state_401a93|13|0 77,0,0,0,0,0,0,0,0,0,0,0,0,0,0,77,
scooby_state_401a4a|62|1 77,0,0,0,0,0,0,0,0,0,0,0,0,0,0,77,
scooby_state_401a4a|46|1 76,0,0,0,0,0,0,0,0,0,0,0,0,0,0,76,
scooby_state_401a93|61|0 76,0,0,0,0,0,0,0,0,0,0,0,0,0,0,76,
scooby_state_401a4a|14|1 74,0,0,0,0,0,0,0,0,0,0,0,0,0,0,74,
scooby_state_401a6f|29|0 72,0,0,0,0,0,0,0,0,0,0,0,0,0,0,72,
scooby_state_401a7c|28|-1 25,47,0,0,0,0,0,0,0,0,0,0,0,0,0,72,
scooby_state_401a34|61|0 71,0,0,0,0,0,0,0,0,0,0,0,0,0,0,71,
scooby_state_401a30|29|0 70,0,0,0,0,0,0,0,0,0,0,0,0,0,0,70,
scooby_state_401a61|29|0 69,0,0,0,0,0,0,0,0,0,0,0,0,0,0,69,
scooby_state_401b72|24|-1 68,0,0,0,0,0,0,0,0,0,0,0,0,0,0,68,
scooby_state_401a34|45|0 67,0,0,0,0,0,0,0,0,0,0,0,0,0,0,67,
scooby_state_401a6f|28|0 67,0,0,0,0,0,0,0,0,0,0,0,0,0,0,67,
scooby_state_401a4a|31|2 66,0,0,0,0,0,0,0,0,0,0,0,0,0,0,66,
scooby_state_401a61|28|0 65,0,0,0,0,0,0,0,0,0,0,0,0,0,0,65,
scooby_state_401a4a|63|2 62,0,0,0,0,0,0,0,0,0,0,0,0,0,0,62,
scooby_state_401a30|28|0 60,0,0,0,0,0,0,0,0,0,0,0,0,0,0,60,
scooby_state_401a93|45|0 58,0,0,0,0,0,1,0,0,0,0,0,0,0,0,59,
scooby_state_401a30|13|0 59,0,0,0,0,0,0,0,0,0,0,0,0,0,0,59,
scooby_state_401a30|28|-1 58,0,0,0,0,0,0,0,0,0,0,0,0,0,0,58,
scooby_state_401a3c|29|0 56,0,0,0,0,0,0,0,0,0,0,0,0,0,0,56,
scooby_state_401c02|23|-6 54,0,0,0,0,0,0,0,0,0,0,0,0,0,0,54,
scooby_state_401a4a|47|2 54,0,0,0,0,0,0,0,0,0,0,0,0,0,0,54,
scooby_state_401a4a|30|1 53,0,0,0,0,0,0,0,0,0,0,0,0,0,0,53,
scooby_state_401a86|29|0 53,0,0,0,0,0,0,0,0,0,0,0,0,0,0,53,
scooby_state_401a7c|28|0 14,39,0,0,0,0,0,0,0,0,0,0,0,0,0,53,
scooby_state_401a93|28|-1 51,0,0,0,0,0,0,0,0,0,0,0,0,0,0,51,
scooby_state_401a86|28|0 51,0,0,0,0,0,0,0,0,0,0,0,0,0,0,51,
scooby_state_401a30|45|0 50,0,0,0,0,0,0,0,0,0,0,0,0,0,0,50,
scooby_state_401a30|61|0 50,0,0,0,0,0,0,0,0,0,0,0,0,0,0,50,
scooby_state_401a61|28|-1 49,0,0,0,0,0,0,0,0,0,0,0,0,0,0,49,
scooby_state_401a54|29|0 48,0,0,0,0,0,0,0,0,0,0,0,0,0,0,48,
scooby_state_401a6f|26|0 47,0,0,0,0,0,0,0,0,0,0,0,0,0,0,47,
scooby_state_401b67|25|-1 47,0,0,0,0,0,0,0,0,0,0,0,0,0,0,47,
scooby_state_401a4a|15|2 45,0,0,0,0,0,0,0,0,0,1,0,0,0,0,46,
scooby_state_401a34|61|-1 46,0,0,0,0,0,0,0,0,0,0,0,0,0,0,46,
scooby_state_401a30|27|0 45,0,0,0,0,0,0,0,0,0,0,0,0,0,0,45,
scooby_state_401a3c|28|0 45,0,0,0,0,0,0,0,0,0,0,0,0,0,0,45,
scooby_state_401ade|26|1 45,0,0,0,0,0,0,0,0,0,0,0,0,0,0,45,
scooby_state_401a6f|61|0 44,0,0,0,0,0,0,0,0,0,0,0,0,0,0,44,
scooby_state_401a61|27|0 43,0,0,0,0,0,0,0,0,0,0,0,0,0,0,43,
scooby_state_401a6f|13|0 43,0,0,0,0,0,0,0,0,0,0,0,0,0,0,43,
scooby_state_401a61|61|0 43,0,0,0,0,0,0,0,0,0,0,0,0,0,0,43,
scooby_state_401a61|26|0 43,0,0,0,0,0,0,0,0,0,0,0,0,0,0,43,
scooby_state_401a34|13|0 43,0,0,0,0,0,0,0,0,0,0,0,0,0,0,43,
scooby_state_401a93|27|0 42,0,0,0,0,0,0,0,0,0,0,0,0,0,0,42,
scooby_state_401a61|45|0 42,0,0,0,0,0,0,0,0,0,0,0,0,0,0,42,
scooby_state_401a6f|28|-1 42,0,0,0,0,0,0,0,0,0,0,0,0,0,0,42,
scooby_state_401a30|60|0 41,0,0,0,0,0,0,0,0,0,0,0,0,0,0,41,
scooby_state_401a6f|45|0 41,0,0,0,0,0,0,0,0,0,0,0,0,0,0,41,
scooby_state_401a34|29|-1 39,0,0,0,0,0,0,0,0,0,0,0,0,0,0,39,
scooby_state_401a54|32|3 38,0,0,0,0,0,0,0,0,0,0,0,0,0,0,38,
scooby_state_401a6f|27|0 38,0,0,0,0,0,0,0,0,0,0,0,0,0,0,38,
scooby_state_401a93|61|-2 38,0,0,0,0,0,0,0,0,0,0,0,0,0,0,38,
scooby_state_401a61|13|0 38,0,0,0,0,0,0,0,0,0,0,0,0,0,0,38,
scooby_state_401a93|32|3 37,0,0,0,0,0,0,0,0,0,0,0,0,0,0,37,
scooby_state_401a4a|15|1 36,0,0,0,0,0,0,0,0,0,0,0,0,0,0,36,
scooby_state_401a34|13|-1 36,0,0,0,0,0,0,0,0,0,0,0,0,0,0,36,
scooby_state_401a93|13|-2 35,0,0,0,0,0,0,0,0,0,0,0,0,0,0,35,
scooby_state_401b67|25|3 35,0,0,0,0,0,0,0,0,0,0,0,0,0,0,35,
scooby_state_401a34|45|-1 35,0,0,0,0,0,0,0,0,0,0,0,0,0,0,35,
scooby_state_401a93|26|-1 35,0,0,0,0,0,0,0,0,0,0,0,0,0,0,35,
scooby_state_401a93|16|3 35,0,0,0,0,0,0,0,0,0,0,0,0,0,0,35,
scooby_state_401a6f|44|0 34,0,0,0,0,0,0,0,0,0,0,0,0,0,0,34,
scooby_state_401a7c|27|-2 3,31,0,0,0,0,0,0,0,0,0,0,0,0,0,34,
scooby_state_401a86|61|0 33,0,0,0,0,1,0,0,0,0,0,0,0,0,0,34,
scooby_state_401a30|44|0 33,0,0,0,0,0,0,0,0,0,0,0,0,0,0,33,
scooby_state_401a30|12|0 33,0,0,0,0,0,0,0,0,0,0,0,0,0,0,33,
scooby_state_401a54|29|-2 33,0,0,0,0,0,0,0,0,0,0,0,0,0,0,33,
scooby_state_401a6f|32|3 31,0,0,0,0,0,0,0,0,0,0,0,1,0,0,32,
scooby_state_401a86|26|0 31,0,0,0,0,0,0,0,0,0,0,0,0,0,0,31,
scooby_state_401acd|29|4 29,1,1,0,0,0,0,0,0,0,0,0,0,0,0,31,
scooby_state_401a93|45|-2 31,0,0,0,0,0,0,0,0,0,0,0,0,0,0,31,
scooby_state_401a93|48|3 31,0,0,0,0,0,0,0,0,0,0,0,0,0,0,31,
scooby_state_401a54|28|0 31,0,0,0,0,0,0,0,0,0,0,0,0,0,0,31,
scooby_state_401a7c|28|-2 2,28,0,0,0,0,0,0,0,0,0,0,0,0,0,30,
scooby_state_401acd|29|1 30,0,0,0,0,0,0,0,0,0,0,0,0,0,0,30,
scooby_state_401a30|26|-1 29,0,0,0,0,0,0,0,0,0,0,0,0,0,0,29,
scooby_state_401a54|61|-2 29,0,0,0,0,0,0,0,0,0,0,0,0,0,0,29,
scooby_state_401a54|61|0 29,0,0,0,0,0,0,0,0,0,0,0,0,0,0,29,
scooby_state_401a3c|26|0 29,0,0,0,0,0,0,0,0,0,0,0,0,0,0,29,
scooby_state_401a3c|31|2 29,0,0,0,0,0,0,0,0,0,0,0,0,0,0,29,
scooby_state_401a3c|28|-1 29,0,0,0,0,0,0,0,0,0,0,0,0,0,0,29,
scooby_state_401a3c|61|0 28,0,0,0,0,0,0,0,0,0,0,0,0,0,0,28,
scooby_state_401a6f|12|0 28,0,0,0,0,0,0,0,0,0,0,0,0,0,0,28,
scooby_state_401a61|26|-1 27,0,0,0,0,0,0,0,0,1,0,0,0,0,0,28,
scooby_state_401a61|32|3 28,0,0,0,0,0,0,0,0,0,0,0,0,0,0,28,
scooby_state_401a86|28|-1 28,0,0,0,0,0,0,0,0,0,0,0,0,0,0,28,
scooby_state_401a61|12|0 28,0,0,0,0,0,0,0,0,0,0,0,0,0,0,28,
scooby_state_401a93|28|-3 27,0,0,0,0,0,0,0,0,0,0,0,0,0,0,27,
scooby_state_401a93|30|3 27,0,0,0,0,0,0,0,0,0,0,0,0,0,0,27,
scooby_state_401a93|29|3 27,0,0,0,0,0,0,0,0,0,0,0,0,0,0,27,
scooby_state_401a30|32|3 27,0,0,0,0,0,0,0,0,0,0,0,0,0,0,27,
scooby_state_401a93|26|-2 27,0,0,0,0,0,0,0,0,0,0,0,0,0,0,27,
scooby_state_401a54|26|0 27,0,0,0,0,0,0,0,0,0,0,0,0,0,0,27,
scooby_state_401acd|29|5 26,1,0,0,0,0,0,0,0,0,0,0,0,0,0,27,
scooby_state_401a4a|30|2 27,0,0,0,0,0,0,0,0,0,0,0,0,0,0,27,
scooby_state_401a93|28|-2 27,0,0,0,0,0,0,0,0,0,0,0,0,0,0,27,
scooby_state_401a61|63|2 26,0,0,0,0,0,0,0,0,0,0,0,0,0,0,26,
scooby_state_401a61|61|-1 26,0,0,0,0,0,0,0,0,0,0,0,0,0,0,26,
scooby_state_401a7c|28|1 2,24,0,0,0,0,0,0,0,0,0,0,0,0,0,26,
scooby_state_401a30|30|3 26,0,0,0,0,0,0,0,0,0,0,0,0,0,0,26,
scooby_state_401b72|24|-2 26,0,0,0,0,0,0,0,0,0,0,0,0,0,0,26,
scooby_state_401ade|26|4 26,0,0,0,0,0,0,0,0,0,0,0,0,0,0,26,
scooby_state_401a3c|32|3 26,0,0,0,0,0,0,0,0,0,0,0,0,0,0,26,
scooby_state_401a30|13|-1 25,0,0,0,0,0,0,0,0,0,0,0,0,0,0,25,
scooby_state_401a30|47|2 25,0,0,0,0,0,0,0,0,0,0,0,0,0,0,25,
scooby_state_401a61|61|-2 25,0,0,0,0,0,0,0,0,0,0,0,0,0,0,25,
scooby_state_401a54|28|-1 25,0,0,0,0,0,0,0,0,0,0,0,0,0,0,25,
scooby_state_401a30|15|2 25,0,0,0,0,0,0,0,0,0,0,0,0,0,0,25,
scooby_state_401a30|45|-1 25,0,0,0,0,0,0,0,0,0,0,0,0,0,0,25,
scooby_state_401a6f|60|0 25,0,0,0,0,0,0,0,0,0,0,0,0,0,0,25,
scooby_state_401a93|27|-3 24,0,0,0,0,0,0,0,0,0,0,0,0,0,0,24,
scooby_state_401a3c|13|0 24,0,0,0,0,0,0,0,0,0,0,0,0,0,0,24,
scooby_state_401a4a|47|1 24,0,0,0,0,0,0,0,0,0,0,0,0,0,0,24,
scooby_state_401a61|29|-2 24,0,0,0,0,0,0,0,0,0,0,0,0,0,0,24,
scooby_state_401a86|32|3 24,0,0,0,0,0,0,0,0,0,0,0,0,0,0,24,
scooby_state_401a61|27|-2 24,0,0,0,0,0,0,0,0,0,0,0,0,0,0,24,
scooby_state_401a93|31|4 24,0,0,0,0,0,0,0,0,0,0,0,0,0,0,24,
scooby_state_401a86|13|0 24,0,0,0,0,0,0,0,0,0,0,0,0,0,0,24,
scooby_state_401ae6|27|0 2,22,0,0,0,0,0,0,0,0,0,0,0,0,0,24,
scooby_state_401a30|29|-2 24,0,0,0,0,0,0,0,0,0,0,0,0,0,0,24,
scooby_state_401a61|28|2 24,0,0,0,0,0,0,0,0,0,0,0,0,0,0,24,
scooby_state_401a30|61|-2 24,0,0,0,0,0,0,0,0,0,0,0,0,0,0,24,
scooby_state_401a30|31|2 24,0,0,0,0,0,0,0,0,0,0,0,0,0,0,24,
scooby_state_401a86|31|2 24,0,0,0,0,0,0,0,0,0,0,0,0,0,0,24,
scooby_state_401a54|13|-2 23,0,0,0,0,0,0,0,0,0,0,0,0,0,0,23,
scooby_state_401a30|28|2 23,0,0,0,0,0,0,0,0,0,0,0,0,0,0,23,
scooby_state_401a54|16|3 23,0,0,0,0,0,0,0,0,0,0,0,0,0,0,23,
scooby_state_401a61|15|2 23,0,0,0,0,0,0,0,0,0,0,0,0,0,0,23,
scooby_state_401a61|13|-1 23,0,0,0,0,0,0,0,0,0,0,0,0,0,0,23,
scooby_state_401a61|31|2 23,0,0,0,0,0,0,0,0,0,0,0,0,0,0,23,
scooby_state_401a6f|48|3 23,0,0,0,0,0,0,0,0,0,0,0,0,0,0,23,
scooby_state_401a6f|26|-1 23,0,0,0,0,0,0,0,0,0,0,0,0,0,0,23,
scooby_state_401a6f|45|-2 23,0,0,0,0,0,0,0,0,0,0,0,0,0,0,23,
scooby_state_401a6f|29|-2 23,0,0,0,0,0,0,0,0,0,0,0,0,0,0,23,
scooby_state_401a54|31|2 22,0,0,0,0,0,0,0,0,0,0,0,0,0,0,22,
scooby_state_401a3c|45|0 22,0,0,0,0,0,0,0,0,0,0,0,0,0,0,22,
scooby_state_401a61|30|3 22,0,0,0,0,0,0,0,0,0,0,0,0,0,0,22,
scooby_state_401a6f|61|-2 22,0,0,0,0,0,0,0,0,0,0,0,0,0,0,22,
scooby_state_401a6f|16|3 22,0,0,0,0,0,0,0,0,0,0,0,0,0,0,22,
scooby_state_401a6f|13|-2 22,0,0,0,0,0,0,0,0,0,0,0,0,0,0,22,
scooby_state_401a61|29|3 22,0,0,0,0,0,0,0,0,0,0,0,0,0,0,22,
scooby_state_401a61|26|-2 22,0,0,0,0,0,0,0,0,0,0,0,0,0,0,22,
scooby_state_401a6f|31|2 22,0,0,0,0,0,0,0,0,0,0,0,0,0,0,22,
scooby_state_401a54|48|3 21,0,0,0,0,0,0,0,0,0,0,0,0,0,0,21,
scooby_state_401a61|47|2 21,0,0,0,0,0,0,0,0,0,0,0,0,0,0,21,
scooby_state_401a61|44|0 20,0,0,1,0,0,0,0,0,0,0,0,0,0,0,21,
scooby_state_401a4a|63|1 21,0,0,0,0,0,0,0,0,0,0,0,0,0,0,21,
scooby_state_401a54|45|-2 21,0,0,0,0,0,0,0,0,0,0,0,0,0,0,21,
scooby_state_401a30|28|-2 21,0,0,0,0,0,0,0,0,0,0,0,0,0,0,21,
scooby_state_401a61|45|-1 21,0,0,0,0,0,0,0,0,0,0,0,0,0,0,21,
scooby_state_401b67|25|1 21,0,0,0,0,0,0,0,0,0,0,0,0,0,0,21,
scooby_state_401a30|27|-2 21,0,0,0,0,0,0,0,0,0,0,0,0,0,0,21,
scooby_state_401a30|26|-2 20,0,0,0,0,0,0,0,0,0,0,0,0,0,0,20,
scooby_state_401a6f|45|-1 20,0,0,0,0,0,0,0,0,0,0,0,0,0,0,20,
scooby_state_401a54|13|0 20,0,0,0,0,0,0,0,0,0,0,0,0,0,0,20,
scooby_state_401a3c|29|-2 20,0,0,0,0,0,0,0,0,0,0,0,0,0,0,20,
scooby_state_401b67|25|-2 20,0,0,0,0,0,0,0,0,0,0,0,0,0,0,20,
scooby_state_401a30|29|3 20,0,0,0,0,0,0,0,0,0,0,0,0,0,0,20,
scooby_state_401a30|45|-2 20,0,0,0,0,0,0,0,0,0,0,0,0,0,0,20,
scooby_state_401a54|45|0 20,0,0,0,0,0,0,0,0,0,0,0,0,0,0,20,
scooby_state_401a6f|30|3 20,0,0,0,0,0,0,0,0,0,0,0,0,0,0,20,
scooby_state_401a6f|47|2 20,0,0,0,0,0,0,0,0,0,0,0,0,0,0,20,
scooby_state_401a30|48|3 20,0,0,0,0,0,0,0,0,0,0,0,0,0,0,20,
scooby_state_401a86|29|-1 20,0,0,0,0,0,0,0,0,0,0,0,0,0,0,20,
scooby_state_401a86|29|-2 20,0,0,0,0,0,0,0,0,0,0,0,0,0,0,20,
scooby_state_401a30|61|-1 19,0,0,0,0,0,0,0,0,0,0,0,0,0,0,19,
scooby_state_401a61|28|-2 19,0,0,0,0,0,0,0,0,0,0,0,0,0,0,19,
scooby_state_401a6f|29|-1 19,0,0,0,0,0,0,0,0,0,0,0,0,0,0,19,
scooby_state_401a3c|29|-1 19,0,0,0,0,0,0,0,0,0,0,0,0,0,0,19,
scooby_state_401a30|63|2 19,0,0,0,0,0,0,0,0,0,0,0,0,0,0,19,
scooby_state_401b67|25|-3 18,0,0,0,0,0,0,0,0,0,0,0,0,0,0,18,
scooby_state_401a86|12|0 18,0,0,0,0,0,0,0,0,0,0,0,0,0,0,18,
scooby_state_401a6f|28|2 18,0,0,0,0,0,0,0,0,0,0,0,0,0,0,18,
scooby_state_401a93|31|2 18,0,0,0,0,0,0,0,0,0,0,0,0,0,0,18,
scooby_state_401a93|45|-1 17,0,0,0,0,0,0,0,0,0,0,0,0,0,0,17,
scooby_state_401a42|28|4 17,0,0,0,0,0,0,0,0,0,0,0,0,0,0,17,
scooby_state_401a61|13|-2 17,0,0,0,0,0,0,0,0,0,0,0,0,0,0,17,
scooby_state_401a3c|47|2 17,0,0,0,0,0,0,0,0,0,0,0,0,0,0,17,
scooby_state_401a61|16|3 17,0,0,0,0,0,0,0,0,0,0,0,0,0,0,17,
scooby_state_401a3c|61|-2 17,0,0,0,0,0,0,0,0,0,0,0,0,0,0,17,
scooby_state_401a93|47|2 17,0,0,0,0,0,0,0,0,0,0,0,0,0,0,17,
scooby_state_401a93|61|-1 17,0,0,0,0,0,0,0,0,0,0,0,0,0,0,17,
scooby_state_401a93|63|2 17,0,0,0,0,0,0,0,0,0,0,0,0,0,0,17,
scooby_state_401a3c|45|-1 17,0,0,0,0,0,0,0,0,0,0,0,0,0,0,17,
scooby_state_401a93|28|2 17,0,0,0,0,0,0,0,0,0,0,0,0,0,0,17,
scooby_state_401a3c|44|0 16,0,0,0,0,0,0,0,0,0,0,0,0,0,0,16,
scooby_state_401a30|33|4 16,0,0,0,0,0,0,0,0,0,0,0,0,0,0,16,
scooby_state_401a93|29|-3 16,0,0,0,0,0,0,0,0,0,0,0,0,0,0,16,
scooby_state_401a30|29|-3 16,0,0,0,0,0,0,0,0,0,0,0,0,0,0,16,
scooby_state_401a54|29|-3 16,0,0,0,0,0,0,0,0,0,0,0,0,0,0,16,
scooby_state_401a3c|63|2 16,0,0,0,0,0,0,0,0,0,0,0,0,0,0,16,
scooby_state_401a54|29|3 16,0,0,0,0,0,0,0,0,0,0,0,0,0,0,16,
scooby_state_401a86|27|0 16,0,0,0,0,0,0,0,0,0,0,0,0,0,0,16,
scooby_state_401a54|26|-2 16,0,0,0,0,0,0,0,0,0,0,0,0,0,0,16,
scooby_state_401ae6|27|1 1,15,0,0,0,0,0,0,0,0,0,0,0,0,0,16,
scooby_state_401a54|33|4 16,0,0,0,0,0,0,0,0,0,0,0,0,0,0,16,
scooby_state_401a54|29|-1 16,0,0,0,0,0,0,0,0,0,0,0,0,0,0,16,
scooby_state_401a86|30|3 16,0,0,0,0,0,0,0,0,0,0,0,0,0,0,16,
scooby_state_401a93|25|0 16,0,0,0,0,0,0,0,0,0,0,0,0,0,0,16,
scooby_state_401a93|33|4 16,0,0,0,0,0,0,0,0,0,0,0,0,0,0,16,
scooby_state_401a6f|26|-2 16,0,0,0,0,0,0,0,0,0,0,0,0,0,0,16,
scooby_state_401a61|60|0 16,0,0,0,0,0,0,0,0,0,0,0,0,0,0,16,
scooby_state_401a54|13|-1 16,0,0,0,0,0,0,0,0,0,0,0,0,0,0,16,
scooby_state_401a6f|29|3 16,0,0,0,0,0,0,0,0,0,0,0,0,0,0,16,
scooby_state_401a3c|61|-1 16,0,0,0,0,0,0,0,0,0,0,0,0,0,0,16,
scooby_state_401a54|15|2 16,0,0,0,0,0,0,0,0,0,0,0,0,0,0,16,
scooby_state_401a3c|26|-1 16,0,0,0,0,0,0,0,0,0,0,0,0,0,0,16,
scooby_state_401a86|61|-2 16,0,0,0,0,0,0,0,0,0,0,0,0,0,0,16,
scooby_state_401a3c|28|2 15,0,0,0,0,0,0,0,0,0,0,0,0,0,0,15,
scooby_state_401a6f|27|-3 15,0,0,0,0,0,0,0,0,0,0,0,0,0,0,15,
scooby_state_401a86|45|0 15,0,0,0,0,0,0,0,0,0,0,0,0,0,0,15,
scooby_state_401a6f|33|4 15,0,0,0,0,0,0,0,0,0,0,0,0,0,0,15,
scooby_state_401a93|17|4 15,0,0,0,0,0,0,0,0,0,0,0,0,0,0,15,
scooby_state_401a93|27|-2 15,0,0,0,0,0,0,0,0,0,0,0,0,0,0,15,
scooby_state_401a93|29|-2 15,0,0,0,0,0,0,0,0,0,0,0,0,0,0,15,
scooby_state_401a3c|27|0 15,0,0,0,0,0,0,0,0,0,0,0,0,0,0,15,
scooby_state_401a6f|29|-3 15,0,0,0,0,0,0,0,0,0,0,0,0,0,0,15,
scooby_state_401a93|13|-3 15,0,0,0,0,0,0,0,0,0,0,0,0,0,0,15,
scooby_state_401a6f|31|4 15,0,0,0,0,0,0,0,0,0,0,0,0,0,0,15,
scooby_state_401a3c|12|0 15,0,0,0,0,0,0,0,0,0,0,0,0,0,0,15,
scooby_state_401a54|45|-1 15,0,0,0,0,0,0,0,0,0,0,0,0,0,0,15,
scooby_state_401a54|30|3 15,0,0,0,0,0,0,0,0,0,0,0,0,0,0,15,
scooby_state_401a54|47|2 15,0,0,0,0,0,0,0,0,0,0,0,0,0,0,15,
scooby_state_401a3c|28|-2 13,0,0,0,0,1,0,0,0,0,0,0,0,0,0,14,
scooby_state_401a54|27|-2 14,0,0,0,0,0,0,0,0,0,0,0,0,0,0,14,
scooby_state_401a6f|15|2 14,0,0,0,0,0,0,0,0,0,0,0,0,0,0,14,
scooby_state_401a61|48|3 14,0,0,0,0,0,0,0,0,0,0,0,0,0,0,14,
scooby_state_401a61|45|-2 14,0,0,0,0,0,0,0,0,0,0,0,0,0,0,14,
scooby_state_401a3c|60|0 14,0,0,0,0,0,0,0,0,0,0,0,0,0,0,14,
scooby_state_401a6f|13|-1 14,0,0,0,0,0,0,0,0,0,0,0,0,0,0,14,
scooby_state_401a93|26|-3 14,0,0,0,0,0,0,0,0,0,0,0,0,0,0,14,
scooby_state_401a30|13|-2 14,0,0,0,0,0,0,0,0,0,0,0,0,0,0,14,
scooby_state_401a30|16|3 14,0,0,0,0,0,0,0,0,0,0,0,0,0,0,14,
scooby_state_401a3c|13|-2 14,0,0,0,0,0,0,0,0,0,0,0,0,0,0,14,
scooby_state_401a93|31|3 14,0,0,0,0,0,0,0,0,0,0,0,0,0,0,14,
scooby_state_401a3c|29|3 14,0,0,0,0,0,0,0,0,0,0,0,0,0,0,14,
scooby_state_401a3c|26|-2 14,0,0,0,0,0,0,0,0,0,0,0,0,0,0,14,
scooby_state_401ae6|27|3 0,14,0,0,0,0,0,0,0,0,0,0,0,0,0,14,
scooby_state_401a3c|16|3 14,0,0,0,0,0,0,0,0,0,0,0,0,0,0,14,
scooby_state_401a4a|45|-1 14,0,0,0,0,0,0,0,0,0,0,0,0,0,0,14,
scooby_state_401a6f|61|-1 13,0,0,0,0,0,0,0,0,0,0,0,0,0,0,13,
scooby_state_401a42|28|0 13,0,0,0,0,0,0,0,0,0,0,0,0,0,0,13,
scooby_state_401a93|49|4 13,0,0,0,0,0,0,0,0,0,0,0,0,0,0,13,
scooby_state_401a54|28|-2 13,0,0,0,0,0,0,0,0,0,0,0,0,0,0,13,
scooby_state_401a6f|28|-2 13,0,0,0,0,0,0,0,0,0,0,0,0,0,0,13,
scooby_state_401a93|13|-1 13,0,0,0,0,0,0,0,0,0,0,0,0,0,0,13,
scooby_state_401a93|15|2 13,0,0,0,0,0,0,0,0,0,0,0,0,0,0,13,
scooby_state_401a61|29|-3 13,0,0,0,0,0,0,0,0,0,0,0,0,0,0,13,
scooby_state_401a30|29|-1 13,0,0,0,0,0,0,0,0,0,0,0,0,0,0,13,
scooby_state_401a3c|29|-3 13,0,0,0,0,0,0,0,0,0,0,0,0,0,0,13,
scooby_state_401a6f|27|-2 13,0,0,0,0,0,0,0,0,0,0,0,0,0,0,13,
scooby_state_401a3c|33|4 13,0,0,0,0,0,0,0,0,0,0,0,0,0,0,13,
scooby_state_401a61|33|4 13,0,0,0,0,0,0,0,0,0,0,0,0,0,0,13,
scooby_state_401a3c|49|4 13,0,0,0,0,0,0,0,0,0,0,0,0,0,0,13,
scooby_state_401a6f|63|2 13,0,0,0,0,0,0,0,0,0,0,0,0,0,0,13,
scooby_state_401a30|49|4 13,0,0,0,0,0,0,0,0,0,0,0,0,0,0,13,
scooby_state_401a7c|12|-1 3,10,0,0,0,0,0,0,0,0,0,0,0,0,0,13,
scooby_state_401a3c|45|-3 13,0,0,0,0,0,0,0,0,0,0,0,0,0,0,13,
scooby_state_401a93|45|-3 13,0,0,0,0,0,0,0,0,0,0,0,0,0,0,13,
scooby_state_401a30|45|-3 13,0,0,0,0,0,0,0,0,0,0,0,0,0,0,13,
scooby_state_401a54|49|4 12,0,0,0,0,0,0,0,0,0,0,0,0,0,0,12,
scooby_state_401a86|44|0 12,0,0,0,0,0,0,0,0,0,0,0,0,0,0,12,
scooby_state_401a86|26|-1 12,0,0,0,0,0,0,0,0,0,0,0,0,0,0,12,
scooby_state_401a6f|17|4 12,0,0,0,0,0,0,0,0,0,0,0,0,0,0,12,
scooby_state_401a86|45|-1 11,0,0,0,0,0,0,0,0,0,1,0,0,0,0,12,
scooby_state_401a86|47|2 12,0,0,0,0,0,0,0,0,0,0,0,0,0,0,12,
scooby_state_401a8b|25|0 12,0,0,0,0,0,0,0,0,0,0,0,0,0,0,12,
scooby_state_401a4a|29|0 12,0,0,0,0,0,0,0,0,0,0,0,0,0,0,12,
scooby_state_401a6f|13|-3 12,0,0,0,0,0,0,0,0,0,0,0,0,0,0,12,
scooby_state_401c02|23|-3 11,1,0,0,0,0,0,0,0,0,0,0,0,0,0,12,
scooby_state_401a86|60|0 12,0,0,0,0,0,0,0,0,0,0,0,0,0,0,12,
scooby_state_401a61|29|-1 12,0,0,0,0,0,0,0,0,0,0,0,0,0,0,12,
scooby_state_401a3c|30|3 12,0,0,0,0,0,0,0,0,0,0,0,0,0,0,12,
scooby_state_401a6f|26|-3 12,0,0,0,0,0,0,0,0,0,0,0,0,0,0,12,
scooby_state_401a74|28|4 12,0,0,0,0,0,0,0,0,0,0,0,0,0,0,12,
scooby_state_401a54|45|-3 12,0,0,0,0,0,0,0,0,0,0,0,0,0,0,12,
scooby_state_401a93|44|0 11,0,0,0,0,0,0,0,0,0,0,0,0,0,0,11,
scooby_state_401a4a|61|0 11,0,0,0,0,0,0,0,0,0,0,0,0,0,0,11,
scooby_state_401a7c|44|-2 1,10,0,0,0,0,0,0,0,0,0,0,0,0,0,11,
[...]
scooby_state_401a54|12|-1 7,0,0,0,0,0,0,0,0,0,0,0,0,0,0,7,
scooby_state_401a34|13|1 7,0,0,0,0,0,0,0,0,0,0,0,0,0,0,7,
scooby_state_401a54|31|3 7,0,0,0,0,0,0,0,0,0,0,0,0,0,0,7,
scooby_state_401a4a|30|3 7,0,0,0,0,0,0,0,0,0,0,0,0,0,0,7,
scooby_state_401a54|28|2 7,0,0,0,0,0,0,0,0,0,0,0,0,0,0,7,
scooby_state_401a54|12|0 7,0,0,0,0,0,0,0,0,0,0,0,0,0,0,7,
scooby_state_401a30|60|-1 7,0,0,0,0,0,0,0,0,0,0,0,0,0,0,7,
scooby_state_401a6f|25|-3 7,0,0,0,0,0,0,0,0,0,0,0,0,0,0,7,
scooby_state_401a6f|28|3 7,0,0,0,0,0,0,0,0,0,0,0,0,0,0,7,
scooby_state_401a6f|30|2 7,0,0,0,0,0,0,0,0,0,0,0,0,0,0,7,
scooby_state_401a34|61|1 6,0,0,0,0,0,0,0,0,0,0,0,0,0,0,6,
scooby_state_401b52|26|4 6,0,0,0,0,0,0,0,0,0,0,0,0,0,0,6,
scooby_state_401c02|23|-5 1,5,0,0,0,0,0,0,0,0,0,0,0,0,0,6,
scooby_state_401b52|26|0 6,0,0,0,0,0,0,0,0,0,0,0,0,0,0,6,
scooby_state_401a30|32|4 6,0,0,0,0,0,0,0,0,0,0,0,0,0,0,6,
scooby_state_401a54|46|2 6,0,0,0,0,0,0,0,0,0,0,0,0,0,0,6,
scooby_state_401a4a|13|0 6,0,0,0,0,0,0,0,0,0,0,0,0,0,0,6,
scooby_state_401a7c|12|-2 0,6,0,0,0,0,0,0,0,0,0,0,0,0,0,6,
scooby_state_401a54|60|-1 6,0,0,0,0,0,0,0,0,0,0,0,0,0,0,6,
scooby_state_401a4a|29|-1 6,0,0,0,0,0,0,0,0,0,0,0,0,0,0,6,
scooby_state_401a54|26|-3 6,0,0,0,0,0,0,0,0,0,0,0,0,0,0,6,
scooby_state_401a54|14|2 6,0,0,0,0,0,0,0,0,0,0,0,0,0,0,6,
scooby_state_401a93|12|0 6,0,0,0,0,0,0,0,0,0,0,0,0,0,0,6,
scooby_state_401b72|24|2 6,0,0,0,0,0,0,0,0,0,0,0,0,0,0,6,
scooby_state_401a6f|25|0 5,0,0,0,0,0,0,0,0,0,0,1,0,0,0,6,
scooby_state_401a4a|47|3 6,0,0,0,0,0,0,0,0,0,0,0,0,0,0,6,
scooby_state_401a61|12|-1 5,0,0,0,0,0,0,0,0,0,0,0,0,0,0,5,
scooby_state_401a3c|26|-3 5,0,0,0,0,0,0,0,0,0,0,0,0,0,0,5,
scooby_state_401a6f|24|0 5,0,0,0,0,0,0,0,0,0,0,0,0,0,0,5,
scooby_state_401a6f|30|4 5,0,0,0,0,0,0,0,0,0,0,0,0,0,0,5,
scooby_state_401a34|45|1 5,0,0,0,0,0,0,0,0,0,0,0,0,0,0,5,
scooby_state_401a54|30|4 5,0,0,0,0,0,0,0,0,0,0,0,0,0,0,5,
scooby_state_401a93|29|-1 5,0,0,0,0,0,0,0,0,0,0,0,0,0,0,5,
scooby_state_401a86|30|2 5,0,0,0,0,0,0,0,0,0,0,0,0,0,0,5,
scooby_state_401a30|12|-1 5,0,0,0,0,0,0,0,0,0,0,0,0,0,0,5,
scooby_state_401a93|32|4 5,0,0,0,0,0,0,0,0,0,0,0,0,0,0,5,
scooby_state_401a6f|44|-1 5,0,0,0,0,0,0,0,0,0,0,0,0,0,0,5,
scooby_state_401a54|62|2 5,0,0,0,0,0,0,0,0,0,0,0,0,0,0,5,
scooby_state_401a86|28|-3 5,0,0,0,0,0,0,0,0,0,0,0,0,0,0,5,
scooby_state_401a54|44|0 5,0,0,0,0,0,0,0,0,0,0,0,0,0,0,5,
scooby_state_401a30|30|2 5,0,0,0,0,0,0,0,0,0,0,0,0,0,0,5,
scooby_state_401a61|28|-3 5,0,0,0,0,0,0,0,0,0,0,0,0,0,0,5,
scooby_state_401a86|30|4 4,0,0,0,0,0,0,0,0,0,0,0,0,0,0,4,
scooby_state_401a3c|60|-1 4,0,0,0,0,0,0,0,0,0,0,0,0,0,0,4,
scooby_state_401a3c|32|4 4,0,0,0,0,0,0,0,0,0,0,0,0,0,0,4,
scooby_state_401a30|24|0 4,0,0,0,0,0,0,0,0,0,0,0,0,0,0,4,
scooby_state_401a6f|60|-1 4,0,0,0,0,0,0,0,0,0,0,0,0,0,0,4,
scooby_state_401a30|62|2 4,0,0,0,0,0,0,0,0,0,0,0,0,0,0,4,
scooby_state_401a4a|13|-1 4,0,0,0,0,0,0,0,0,0,0,0,0,0,0,4,
scooby_state_401a61|60|-1 4,0,0,0,0,0,0,0,0,0,0,0,0,0,0,4,
scooby_state_401a61|30|4 4,0,0,0,0,0,0,0,0,0,0,0,0,0,0,4,
scooby_state_401a54|32|4 4,0,0,0,0,0,0,0,0,0,0,0,0,0,0,4,
scooby_state_401a3c|30|4 4,0,0,0,0,0,0,0,0,0,0,0,0,0,0,4,
scooby_state_401af3|28|1 4,0,0,0,0,0,0,0,0,0,0,0,0,0,0,4,
scooby_state_401a30|30|4 4,0,0,0,0,0,0,0,0,0,0,0,0,0,0,4,
scooby_state_401ade|26|-1 4,0,0,0,0,0,0,0,0,0,0,0,0,0,0,4,
scooby_state_401a3c|31|3 4,0,0,0,0,0,0,0,0,0,0,0,0,0,0,4,
scooby_state_401a3c|31|4 3,0,0,0,0,0,0,0,0,0,0,0,0,0,0,3,
scooby_state_401ba2|26|1 0,3,0,0,0,0,0,0,0,0,0,0,0,0,0,3,
scooby_state_401a54|1|-1 3,0,0,0,0,0,0,0,0,0,0,0,0,0,0,3,
scooby_state_401a30|3|2 3,0,0,0,0,0,0,0,0,0,0,0,0,0,0,3,
scooby_state_401a61|31|4 3,0,0,0,0,0,0,0,0,0,0,0,0,0,0,3,
scooby_state_401af3|28|0 3,0,0,0,0,0,0,0,0,0,0,0,0,0,0,3,
scooby_state_401a54|3|2 3,0,0,0,0,0,0,0,0,0,0,0,0,0,0,3,
scooby_state_401a34|28|0 3,0,0,0,0,0,0,0,0,0,0,0,0,0,0,3,
scooby_state_401c02|23|-2 3,0,0,0,0,0,0,0,0,0,0,0,0,0,0,3,
scooby_state_401a3c|27|-3 3,0,0,0,0,0,0,0,0,0,0,0,0,0,0,3,
scooby_state_401a86|31|3 3,0,0,0,0,0,0,0,0,0,0,0,0,0,0,3,
scooby_state_401a3c|3|2 3,0,0,0,0,0,0,0,0,0,0,0,0,0,0,3,
scooby_state_401af3|28|-1 3,0,0,0,0,0,0,0,0,0,0,0,0,0,0,3,
scooby_state_401a3c|2|2 3,0,0,0,0,0,0,0,0,0,0,0,0,0,0,3,
scooby_state_401a34|28|-1 3,0,0,0,0,0,0,0,0,0,0,0,0,0,0,3,
scooby_state_401a61|27|-3 3,0,0,0,0,0,0,0,0,0,0,0,0,0,0,3,
scooby_state_401a54|28|3 3,0,0,0,0,0,0,0,0,0,0,0,0,0,0,3,
scooby_state_401a54|25|-3 3,0,0,0,0,0,0,0,0,0,0,0,0,0,0,3,
scooby_state_401a74|28|-1 3,0,0,0,0,0,0,0,0,0,0,0,0,0,0,3,
scooby_state_401a3c|30|2 3,0,0,0,0,0,0,0,0,0,0,0,0,0,0,3,
scooby_state_401a61|30|2 3,0,0,0,0,0,0,0,0,0,0,0,0,0,0,3,
scooby_state_401a30|2|2 3,0,0,0,0,0,0,0,0,0,0,0,0,0,0,3,
scooby_state_401a61|44|-1 3,0,0,0,0,0,0,0,0,0,0,0,0,0,0,3,
scooby_state_401a4a|15|3 3,0,0,0,0,0,0,0,0,0,0,0,0,0,0,3,
scooby_state_401a54|2|2 3,0,0,0,0,0,0,0,0,0,0,0,0,0,0,3,
scooby_state_401a3c|24|0 3,0,0,0,0,0,0,0,0,0,0,0,0,0,0,3,
scooby_state_401a3c|1|-1 3,0,0,0,0,0,0,0,0,0,0,0,0,0,0,3,
scooby_state_4019c3|26|4 3,0,0,0,0,0,0,0,0,0,0,0,0,0,0,3,
scooby_state_401c02|23|-4 3,0,0,0,0,0,0,0,0,0,0,0,0,0,0,3,
scooby_state_401a30|1|-1 3,0,0,0,0,0,0,0,0,0,0,0,0,0,0,3,
scooby_state_401a3c|25|0 3,0,0,0,0,0,0,0,0,0,0,0,0,0,0,3,
scooby_state_401a86|12|-1 3,0,0,0,0,0,0,0,0,0,0,0,0,0,0,3,
scooby_state_401a74|28|0 2,0,0,0,0,0,0,0,0,0,0,0,0,0,0,2,
scooby_state_4019c3|26|0 2,0,0,0,0,0,0,0,0,0,0,0,0,0,0,2,
scooby_state_401a86|49|4 2,0,0,0,0,0,0,0,0,0,0,0,0,0,0,2,
scooby_state_401a7c|29|-1 2,0,0,0,0,0,0,0,0,0,0,0,0,0,0,2,
scooby_state_401a7c|45|0 1,1,0,0,0,0,0,0,0,0,0,0,0,0,0,2,
scooby_state_401a86|25|0 2,0,0,0,0,0,0,0,0,0,0,0,0,0,0,2,
scooby_state_401a86|14|2 2,0,0,0,0,0,0,0,0,0,0,0,0,0,0,2,
scooby_state_401a86|27|-3 2,0,0,0,0,0,0,0,0,0,0,0,0,0,0,2,
scooby_state_401a61|26|-3 2,0,0,0,0,0,0,0,0,0,0,0,0,0,0,2,
scooby_state_401a6f|46|2 2,0,0,0,0,0,0,0,0,0,0,0,0,0,0,2,
scooby_state_401a7c|13|0 0,2,0,0,0,0,0,0,0,0,0,0,0,0,0,2,
scooby_state_401ade|26|-2 2,0,0,0,0,0,0,0,0,0,0,0,0,0,0,2,
scooby_state_401a3c|14|2 2,0,0,0,0,0,0,0,0,0,0,0,0,0,0,2,
scooby_state_401a61|2|2 2,0,0,0,0,0,0,0,0,0,0,0,0,0,0,2,
scooby_state_401ae6|27|2 0,2,0,0,0,0,0,0,0,0,0,0,0,0,0,2,
scooby_state_401a61|46|2 2,0,0,0,0,0,0,0,0,0,0,0,0,0,0,2,
scooby_state_401a3c|12|-1 2,0,0,0,0,0,0,0,0,0,0,0,0,0,0,2,
scooby_state_401a7c|13|-1 1,1,0,0,0,0,0,0,0,0,0,0,0,0,0,2,
scooby_state_401a3c|62|2 2,0,0,0,0,0,0,0,0,0,0,0,0,0,0,2,
scooby_state_401bec|29|0 2,0,0,0,0,0,0,0,0,0,0,0,0,0,0,2,
scooby_state_401b52|26|-3 2,0,0,0,0,0,0,0,0,0,0,0,0,0,0,2,
scooby_state_401a86|31|4 2,0,0,0,0,0,0,0,0,0,0,0,0,0,0,2,
scooby_state_401a61|14|2 2,0,0,0,0,0,0,0,0,0,0,0,0,0,0,2,
scooby_state_401a86|45|-3 2,0,0,0,0,0,0,0,0,0,0,0,0,0,0,2,
scooby_state_401a30|44|-1 2,0,0,0,0,0,0,0,0,0,0,0,0,0,0,2,
scooby_state_401a6f|62|2 2,0,0,0,0,0,0,0,0,0,0,0,0,0,0,2,
scooby_state_401a61|1|-1 2,0,0,0,0,0,0,0,0,0,0,0,0,0,0,2,
scooby_state_401a4a|63|3 2,0,0,0,0,0,0,0,0,0,0,0,0,0,0,2,
scooby_state_401a93|30|4 2,0,0,0,0,0,0,0,0,0,0,0,0,0,0,2,
scooby_state_401a30|14|2 2,0,0,0,0,0,0,0,0,0,0,0,0,0,0,2,
scooby_state_401a34|12|-1 2,0,0,0,0,0,0,0,0,0,0,0,0,0,0,2,
scooby_state_401a61|3|2 2,0,0,0,0,0,0,0,0,0,0,0,0,0,0,2,
scooby_state_401a86|28|3 1,0,0,0,0,0,0,0,0,0,0,0,0,0,0,1,
scooby_state_401b72|24|-3 1,0,0,0,0,0,0,0,0,0,0,0,0,0,0,1,
scooby_state_401a7c|51|-1 0,1,0,0,0,0,0,0,0,0,0,0,0,0,0,1,
scooby_state_401a86|46|2 1,0,0,0,0,0,0,0,0,0,0,0,0,0,0,1,
scooby_state_401a30|46|2 1,0,0,0,0,0,0,0,0,0,0,0,0,0,0,1,
scooby_state_401a98|0|-41 1,0,0,0,0,0,0,0,0,0,0,0,0,0,0,1,
scooby_state_401acd|29|7 1,0,0,0,0,0,0,0,0,0,0,0,0,0,0,1,
scooby_state_401a7c|61|-1 0,1,0,0,0,0,0,0,0,0,0,0,0,0,0,1,
scooby_state_401a4a|48|-15 1,0,0,0,0,0,0,0,0,0,0,0,0,0,0,1,
scooby_state_401c02|23|-1 1,0,0,0,0,0,0,0,0,0,0,0,0,0,0,1,
scooby_state_401c6d|21|-1 1,0,0,0,0,0,0,0,0,0,0,0,0,0,0,1,
scooby_state_401a59|52|0 1,0,0,0,0,0,0,0,0,0,0,0,0,0,0,1,
scooby_state_401a6f|33|3 1,0,0,0,0,0,0,0,0,0,0,0,0,0,0,1,
scooby_state_401a86|25|-3 1,0,0,0,0,0,0,0,0,0,0,0,0,0,0,1,
scooby_state_401a30|33|3 1,0,0,0,0,0,0,0,0,0,0,0,0,0,0,1,
scooby_state_401a8b|55|-8 1,0,0,0,0,0,0,0,0,0,0,0,0,0,0,1,
scooby_state_401706|28|1 1,0,0,0,0,0,0,0,0,0,0,0,0,0,0,1,
scooby_state_401a30|25|-3 1,0,0,0,0,0,0,0,0,0,0,0,0,0,0,1,
scooby_state_401a4a|0|-48 1,0,0,0,0,0,0,0,0,0,0,0,0,0,0,1,
scooby_state_401a98|0|-63 1,0,0,0,0,0,0,0,0,0,0,0,0,0,0,1,
scooby_state_401a30|30|-2 1,0,0,0,0,0,0,0,0,0,0,0,0,0,0,1,
scooby_state_4016c0|27|-24 1,0,0,0,0,0,0,0,0,0,0,0,0,0,0,1,
scooby_state_401ca1|19|-1 1,0,0,0,0,0,0,0,0,0,0,0,0,0,0,1,
scooby_state_401a3c|30|-2 1,0,0,0,0,0,0,0,0,0,0,0,0,0,0,1,
scooby_state_401a30|28|3 1,0,0,0,0,0,0,0,0,0,0,0,0,0,0,1,
scooby_state_401a59|38|0 1,0,0,0,0,0,0,0,0,0,0,0,0,0,0,1,
scooby_state_401a27|26|0 1,0,0,0,0,0,0,0,0,0,0,0,0,0,0,1,
scooby_state_401746|29|1 1,0,0,0,0,0,0,0,0,0,0,0,0,0,0,1,
scooby_state_401a61|25|-2 1,0,0,0,0,0,0,0,0,0,0,0,0,0,0,1,
scooby_state_401a3c|33|3 1,0,0,0,0,0,0,0,0,0,0,0,0,0,0,1,
scooby_state_401901|36|1 1,0,0,0,0,0,0,0,0,0,0,0,0,0,0,1,
scooby_state_401a86|27|2 1,0,0,0,0,0,0,0,0,0,0,0,0,0,0,1,
scooby_state_401a34|44|0 1,0,0,0,0,0,0,0,0,0,0,0,0,0,0,1,
scooby_state_401a86|30|-2 1,0,0,0,0,0,0,0,0,0,0,0,0,0,0,1,
scooby_state_4018c0|35|-12 1,0,0,0,0,0,0,0,0,0,0,0,0,0,0,1,
scooby_state_4019c0|39|1 1,0,0,0,0,0,0,0,0,0,0,0,0,0,0,1,
scooby_state_401a30|40|-3 1,0,0,0,0,0,0,0,0,0,0,0,0,0,0,1,
scooby_state_401c7a|20|-1 1,0,0,0,0,0,0,0,0,0,0,0,0,0,0,1,
scooby_state_401b42|45|1 1,0,0,0,0,0,0,0,0,0,0,0,0,0,0,1,
scooby_state_401b82|46|7 1,0,0,0,0,0,0,0,0,0,0,0,0,0,0,1,
scooby_state_401ac9|43|0 1,0,0,0,0,0,0,0,0,0,0,0,0,0,0,1,
scooby_state_401a8b|57|0 1,0,0,0,0,0,0,0,0,0,0,0,0,0,0,1,
scooby_state_401980|38|-7 1,0,0,0,0,0,0,0,0,0,0,0,0,0,0,1,
scooby_state_401c45|49|1 1,0,0,0,0,0,0,0,0,0,0,0,0,0,0,1,
scooby_state_401bc2|47|1 1,0,0,0,0,0,0,0,0,0,0,0,0,0,0,1,
scooby_state_401a61|27|2 1,0,0,0,0,0,0,0,0,0,0,0,0,0,0,1,
scooby_state_401a86|25|-2 1,0,0,0,0,0,0,0,0,0,0,0,0,0,0,1,
scooby_state_401a86|14|-2 1,0,0,0,0,0,0,0,0,0,0,0,0,0,0,1,
scooby_state_401a6f|27|2 1,0,0,0,0,0,0,0,0,0,0,0,0,0,0,1,
scooby_state_401845|33|1 1,0,0,0,0,0,0,0,0,0,0,0,0,0,0,1,
scooby_state_401800|32|1 1,0,0,0,0,0,0,0,0,0,0,0,0,0,0,1,
scooby_state_4017c0|31|1 1,0,0,0,0,0,0,0,0,0,0,0,0,0,0,1,
scooby_state_401780|30|-19 1,0,0,0,0,0,0,0,0,0,0,0,0,0,0,1,
scooby_state_401a98|50|0 1,0,0,0,0,0,0,0,0,0,0,0,0,0,0,1,
scooby_state_401c02|48|11 1,0,0,0,0,0,0,0,0,0,0,0,0,0,0,1,
scooby_state_401b06|44|2 1,0,0,0,0,0,0,0,0,0,0,0,0,0,0,1,
scooby_state_401a86|13|-3 1,0,0,0,0,0,0,0,0,0,0,0,0,0,0,1,
scooby_state_401a30|25|-2 1,0,0,0,0,0,0,0,0,0,0,0,0,0,0,1,
scooby_state_401a54|25|-2 1,0,0,0,0,0,0,0,0,0,0,0,0,0,0,1,
scooby_state_401ade|26|2 1,0,0,0,0,0,0,0,0,0,0,0,0,0,0,1,
scooby_state_401a86|17|3 1,0,0,0,0,0,0,0,0,0,0,0,0,0,0,1,
scooby_state_401a34|12|-2 1,0,0,0,0,0,0,0,0,0,0,0,0,0,0,1,
scooby_state_401a42|41|1 1,0,0,0,0,0,0,0,0,0,0,0,0,0,0,1,
scooby_state_401a3c|62|-1 1,0,0,0,0,0,0,0,0,0,0,0,0,0,0,1,
scooby_state_401a86|32|4 1,0,0,0,0,0,0,0,0,0,0,0,0,0,0,1,
scooby_state_401a61|32|4 1,0,0,0,0,0,0,0,0,0,0,0,0,0,0,1,
scooby_state_401c84|50|0 1,0,0,0,0,0,0,0,0,0,0,0,0,0,0,1,
scooby_state_401a86|17|4 1,0,0,0,0,0,0,0,0,0,0,0,0,0,0,1,
scooby_state_401a93|60|-1 1,0,0,0,0,0,0,0,0,0,0,0,0,0,0,1,
scooby_state_401a86|60|-1 1,0,0,0,0,0,0,0,0,0,0,0,0,0,0,1,
scooby_state_401a6f|62|-1 1,0,0,0,0,0,0,0,0,0,0,0,0,0,0,1,
scooby_state_401a54|62|-1 1,0,0,0,0,0,0,0,0,0,0,0,0,0,0,1,
scooby_state_401a61|62|-1 1,0,0,0,0,0,0,0,0,0,0,0,0,0,0,1,
scooby_state_401a6f|25|-2 1,0,0,0,0,0,0,0,0,0,0,0,0,0,0,1,
scooby_state_401a4a|62|0 1,0,0,0,0,0,0,0,0,0,0,0,0,0,0,1,
scooby_state_401a93|14|-2 1,0,0,0,0,0,0,0,0,0,0,0,0,0,0,1,
scooby_state_401a93|12|-1 1,0,0,0,0,0,0,0,0,0,0,0,0,0,0,1,
scooby_state_401a93|17|3 1,0,0,0,0,0,0,0,0,0,0,0,0,0,0,1,
scooby_state_401906|24|0 1,0,0,0,0,0,0,0,0,0,0,0,0,0,0,1,
scooby_state_401a30|27|2 1,0,0,0,0,0,0,0,0,0,0,0,0,0,0,1,
scooby_state_401a7c|29|2 1,0,0,0,0,0,0,0,0,0,0,0,0,0,0,1,
scooby_state_401a34|44|-1 1,0,0,0,0,0,0,0,0,0,0,0,0,0,0,1,
scooby_state_401bec|29|1 1,0,0,0,0,0,0,0,0,0,0,0,0,0,0,1,
scooby_state_401a59|53|2 1,0,0,0,0,0,0,0,0,0,0,0,0,0,0,1,
scooby_state_401a86|44|-1 1,0,0,0,0,0,0,0,0,0,0,0,0,0,0,1,
scooby_state_401a6f|30|-2 1,0,0,0,0,0,0,0,0,0,0,0,0,0,0,1,
scooby_state_401a66|7|0 1,0,0,0,0,0,0,0,0,0,0,0,0,0,0,1,
scooby_state_401a54|27|2 1,0,0,0,0,0,0,0,0,0,0,0,0,0,0,1,
scooby_state_401a34|12|0 1,0,0,0,0,0,0,0,0,0,0,0,0,0,0,1,
scooby_state_401882|34|1 1,0,0,0,0,0,0,0,0,0,0,0,0,0,0,1,
scooby_state_401b67|25|6 1,0,0,0,0,0,0,0,0,0,0,0,0,0,0,1,
scooby_state_401a54|25|0 1,0,0,0,0,0,0,0,0,0,0,0,0,0,0,1,
scooby_state_401a82|42|1 1,0,0,0,0,0,0,0,0,0,0,0,0,0,0,1,
scooby_state_401a7c|29|1 0,1,0,0,0,0,0,0,0,0,0,0,0,0,0,1,
scooby_state_401a6f|14|2 1,0,0,0,0,0,0,0,0,0,0,0,0,0,0,1,
scooby_state_401a27|26|4 1,0,0,0,0,0,0,0,0,0,0,0,0,0,0,1,
scooby_state_401a86|33|3 1,0,0,0,0,0,0,0,0,0,0,0,0,0,0,1,
scooby_state_401942|37|1 1,0,0,0,0,0,0,0,0,0,0,0,0,0,0,1,
scooby_state_401a6f|12|-1 1,0,0,0,0,0,0,0,0,0,0,0,0,0,0,1,
scooby_state_401a4a|0|0 1,0,0,0,0,0,0,0,0,0,0,0,0,0,0,1,
scooby_state_401a7c|29|0 1,0,0,0,0,0,0,0,0,0,0,0,0,0,0,1,
scooby_state_401cc4|51|1 1,0,0,0,0,0,0,0,0,0,0,0,0,0,0,1,

scooby_action_0_deg_dist 0,33,0,0,0,0,0,0,0,0,0,0,0,0,0,0,
scooby_action_12_deg_dist 0,26,0,0,0,0,0,0,0,0,0,0,0,0,0,0,
scooby_action_32_deg_dist 0,24,0,0,0,0,0,0,0,0,0,0,0,0,0,0,
scooby_action_3_deg_dist 0,373,0,0,0,0,0,0,0,0,0,0,0,0,0,0,
scooby_action_5_deg_dist 0,26,0,0,0,0,0,0,0,0,0,0,0,0,0,0,
scooby_action_1_deg_dist 0,10401,6631,0,16048,0,188627,0,0,0,0,0,0,0,0,0,
scooby_action_30_deg_dist 0,33,0,0,0,0,0,0,0,0,0,0,0,0,0,0,
scooby_action_4_deg_dist 0,24,0,0,0,0,0,0,0,0,0,0,0,0,0,0,
scooby_action_-3_deg_dist 0,24,0,0,0,0,0,0,0,0,0,0,0,0,0,0,
scooby_action_10_deg_dist 0,38,0,0,0,0,0,0,0,0,0,0,0,0,0,0,
scooby_action_-1_deg_dist 0,29,0,0,0,0,0,0,0,0,0,0,0,0,0,0,
scooby_action_23_deg_dist 0,27,0,0,0,0,0,0,0,0,0,0,0,0,0,0,
scooby_action_-6_deg_dist 0,24,0,0,0,0,0,0,0,0,0,0,0,0,0,0,
scooby_action_11_deg_dist 0,29,0,0,0,0,0,0,0,0,0,0,0,0,0,0,
scooby_action_22_deg_dist 0,34,0,0,0,0,0,0,0,0,0,0,0,0,0,0,

scooby_track_called 222451
scooby_track_same_address 7659
scooby_track_evict 214536

scooby_reward_demand_called 222451
scooby_reward_demand_pt_not_found 4565
scooby_reward_demand_pt_found 217886
scooby_reward_demand_pt_found_total 217886
scooby_reward_demand_has_reward 7054
scooby_reward_train_called 529
scooby_reward_assign_reward_called 214780
scooby_reward_no_pref 33
scooby_reward_incorrect 496
scooby_reward_correct_untimely 196712
scooby_reward_correct_timely 14120
scooby_reward_out_of_bounds 3419
scooby_reward_tracker_hit 0

scooby_reward_none_low_bw 33
scooby_reward_none_high_bw 0
scooby_reward_incorrect_low_bw 496
scooby_reward_incorrect_high_bw 0
scooby_reward_correct_untimely_low_bw 196712
scooby_reward_correct_untimely_high_bw 0
scooby_reward_correct_timely_low_bw 14120
scooby_reward_correct_timely_high_bw 0
scooby_reward_out_of_bounds_low_bw 3419
scooby_reward_out_of_bounds_high_bw 0
scooby_reward_tracker_hit_low_bw 0
scooby_reward_tracker_hit_high_bw 0

scooby_reward_1 0,434,196591,13958,3346,0,
scooby_reward_3 0,37,102,8,3,0,
scooby_reward_4 0,1,12,9,2,0,
scooby_reward_5 0,0,6,19,1,0,
scooby_reward_10 0,7,0,28,3,0,
scooby_reward_11 0,6,0,17,6,0,
scooby_reward_12 0,0,1,22,3,0,
scooby_reward_22 0,1,0,22,11,0,
scooby_reward_23 0,1,0,17,9,0,
scooby_reward_30 0,3,0,15,15,0,
scooby_reward_32 0,3,0,5,16,0,
scooby_reward_-1 0,1,0,0,0,0,
scooby_reward_-3 0,0,0,0,0,0,
scooby_reward_-6 0,2,0,0,4,0,
scooby_reward_0 33,0,0,0,0,0,

scooby_train_called 214535
scooby_train_compute_reward 529

scooby_register_fill_called 191178
scooby_register_fill_set 14144
scooby_register_fill_set_total 14144

scooby_register_prefetch_hit_called 498793
scooby_register_prefetch_hit_set 169973
scooby_register_prefetch_hit_set_total 169973

scooby_pref_issue_scooby 1108398

learning_engine_featurewise.action.called 222451
learning_engine_featurewise.action.explore 429
learning_engine_featurewise.action.exploit 222022
learning_engine_featurewise.action.fallback 0
learning_engine_featurewise.action.dyn_fallback_saved_bw 0
learning_engine_featurewise.action.dyn_fallback_saved_bw_acc 0
learning_engine_featurewise.action.index_1_explored 27
learning_engine_featurewise.action.index_1_exploited 221680
learning_engine_featurewise.action.index_3_explored 32
learning_engine_featurewise.action.index_3_exploited 341
learning_engine_featurewise.action.index_4_explored 23
learning_engine_featurewise.action.index_4_exploited 1
learning_engine_featurewise.action.index_5_explored 26
learning_engine_featurewise.action.index_5_exploited 0
learning_engine_featurewise.action.index_10_explored 38
learning_engine_featurewise.action.index_10_exploited 0
learning_engine_featurewise.action.index_11_explored 29
learning_engine_featurewise.action.index_11_exploited 0
learning_engine_featurewise.action.index_12_explored 26
learning_engine_featurewise.action.index_12_exploited 0
learning_engine_featurewise.action.index_22_explored 34
learning_engine_featurewise.action.index_22_exploited 0
learning_engine_featurewise.action.index_23_explored 27
learning_engine_featurewise.action.index_23_exploited 0
learning_engine_featurewise.action.index_30_explored 33
learning_engine_featurewise.action.index_30_exploited 0
learning_engine_featurewise.action.index_32_explored 24
learning_engine_featurewise.action.index_32_exploited 0
learning_engine_featurewise.action.index_-1_explored 29
learning_engine_featurewise.action.index_-1_exploited 0
learning_engine_featurewise.action.index_-3_explored 24
learning_engine_featurewise.action.index_-3_exploited 0
learning_engine_featurewise.action.index_-6_explored 24
learning_engine_featurewise.action.index_-6_exploited 0
learning_engine_featurewise.action.index_0_explored 33
learning_engine_featurewise.action.index_0_exploited 0
learning_engine_featurewise.learn.called 214535
learning_engine_featurewise.learn.su_skip_PC 0
learning_engine_featurewise.learn.su_skip_PC_Delta 0

learning_engine_featurewise.q_value_histogram.bucket_0 0
learning_engine_featurewise.q_value_histogram.bucket_1 0
learning_engine_featurewise.q_value_histogram.bucket_2 0
learning_engine_featurewise.q_value_histogram.bucket_3 0
learning_engine_featurewise.q_value_histogram.bucket_4 1402
learning_engine_featurewise.q_value_histogram.bucket_5 1251
learning_engine_featurewise.q_value_histogram.bucket_6 219369
learning_engine_featurewise.q_value_histogram.bucket_7 0

learning_engine_featurewise.consensus.total 222022
learning_engine_featurewise.consensus.feature_align_PC 221852
learning_engine_featurewise.consensus.feature_align_PC_ratio 1.00
learning_engine_featurewise.consensus.feature_align_PC_Delta 221387
learning_engine_featurewise.consensus.feature_align_PC_Delta_ratio 1.00
learning_engine_featurewise.consensus.feature_align_all 221217
learning_engine_featurewise.consensus.feature_align_all_ratio 1.00

learning_engine_featurewise.feature_PC_min_weight 1000000.00000000
learning_engine_featurewise.feature_PC_max_weight 0.00000000
learning_engine_featurewise.feature_PC_Delta_min_weight 1000000.00000000
learning_engine_featurewise.feature_PC_Delta_max_weight 0.00000000
unique_pcs 55
unique_pages 3198
unique_trigger_pcs 16
total_bitmaps_seen 0
unique_bitmaps_seen 0

scooby_bw_epochs 31812
scooby_bw_level_0 6622
scooby_bw_level_1 7709
scooby_bw_level_2 6903
scooby_bw_level_3 10578

scooby_ipc_epochs 0
scooby_ipc_level_0 0
scooby_ipc_level_1 0
scooby_ipc_level_2 0
scooby_ipc_level_3 0

scooby_cache_acc_epochs 7667
scooby_cache_acc_level_0 1
scooby_cache_acc_level_1 0
scooby_cache_acc_level_2 0
scooby_cache_acc_level_3 3
scooby_cache_acc_level_4 14
scooby_cache_acc_level_5 22
scooby_cache_acc_level_6 55
scooby_cache_acc_level_7 264
scooby_cache_acc_level_8 1231
scooby_cache_acc_level_9 6077

Channel_0_RQ_row_buffer_hit 150257
Channel_0_RQ_row_buffer_miss 39816
Channel_0_WQ_row_buffer_hit 37
Channel_0_WQ_row_buffer_miss 95
Channel_0_WQ_full 0
Channel_0_dbus_congested 71399

avg_congested_cycle 8

DRAM_bw_pochs 31812
DRAM_bw_level_0 6622
DRAM_bw_level_1 7709
DRAM_bw_level_2 6903
DRAM_bw_level_3 10578
