Original cmd-> /cluster/home/vlnitu/CA-Lab4-24-vlnitu/Pythia/bin/perceptron-no-multi-no-ship-1core --warmup_instructions=1000000 --simulation_instructions=10000000 --config=/cluster/home/vlnitu/CA-Lab4-24-vlnitu/Pythia/config/nopref.ini --mail-type=BEGIN,END  -traces /cluster/home/vlnitu/CA-Lab4-24-vlnitu/Pythia/traces/603.bwaves_s-1740B.champsimtrace.xz
*************************************************
   ChampSim Multicore Out-of-Order Simulator
   Last compiled: Nov 19 2024 20:10:11
*************************************************
parsing config file: /cluster/home/vlnitu/CA-Lab4-24-vlnitu/Pythia/config/nopref.ini
unable to parse section: , name: mail-type, value: BEGIN,END

trace_0 /cluster/home/vlnitu/CA-Lab4-24-vlnitu/Pythia/traces/603.bwaves_s-1740B.champsimtrace.xz
adding L2C_PREFETCHER: NONE
Initialize SHIP state
warmup_instructions 1000000
simulation_instructions 10000000
champsim_seed 270
measure_ipc 0
measure_ipc_epoch 1000
measure_dram_bw 1
measure_dram_bw_epoch 256
measure_cache_acc 1
measure_cache_acc_epoch 1024
l1d_perfect 0
l2c_perfect 0
llc_perfect 0
l1d_semi_perfect 0
l2c_semi_perfect 0
llc_semi_perfect 0
semi_perfect_cache_page_buffer_size 64

num_cpus 1
cpu_freq 4000
dram_io_freq 2400
page_size 4096
block_size 64
max_read_per_cycle 8
max_fill_per_cycle 1
dram_channels 1
log2_dram_channels 0
dram_ranks 1
dram_banks 8
dram_rows 65536
dram_columns 128
dram_row_size 8
dram_size 4096
dram_pages 1048576

fetch_width 6
decode_width 6
exec_width 4
lq_width 2
sq_width 2
retire_width 4
scheduler_size 128
branch_mispredict_penalty 20
rob_size 256
lq_size 72
sq_size 56
num_instr_destinations_sparc 4
num_instr_destinations 2
num_instr_sources 4

itlb_set 16
itlb_way 8
itlb_rq_size 16
itlb_wq_size 16
itlb_pq_size 0
itlb_mshr_size 8
itlb_latency 1

dtlb_set 16
dtlb_way 4
dtlb_rq_size 16
dtlb_wq_size 16
dtlb_pq_size 0
dtlb_mshr_size 8
dtlb_latency 1

stlb_set 128
stlb_way 12
stlb_rq_size 32
stlb_wq_size 32
stlb_pq_size 0
stlb_mshr_size 16
stlb_latency 8

l1i_size 32
l1i_set 64
l1i_way 8
l1i_rq_size 64
l1i_wq_size 64
l1i_pq_size 8
l1i_mshr_size 8
l1i_latency 1

l1d_size 32
l1d_set 64
l1d_way 8
l1d_rq_size 64
l1d_wq_size 64
l1d_pq_size 8
l1d_mshr_size 16
l1d_latency 4

l2c_size 256
l2c_set 512
l2c_way 8
l2c_rq_size 32
l2c_wq_size 32
l2c_pq_size 32
l2c_mshr_size 32
l2c_latency 10

llc_size 2048
llc_set 2048
llc_way 16
llc_rq_size 32
llc_wq_size 32
llc_pq_size 32
llc_mshr_size 64
llc_latency 20

dram_channel_width 8
dram_wq_size 64
dram_rq_size 64
tRP 15
tRCD 15
tCAS 12.5
dram_dbus_turn_around_time 30
dram_write_high_wm 56
dram_write_low_wm 48
min_dram_writes_per_switch 16
dram_mtps 2400
dram_dbus_return_time 13


Heartbeat CPU  0 instructions:    1000001 cycles:     525979 heartbeat IPC: 1.90122 cumulative IPC: 1.90122 (Simulation time: 0 hr 0 min 1 sec) 

Warmup complete CPU  0 instructions:    1000001 cycles:     525979 (Simulation time: 0 hr 0 min 1 sec) 

Heartbeat CPU  0 instructions:    2000001 cycles:    2092398 heartbeat IPC: 0.63840 cumulative IPC: 0.63840 (Simulation time: 0 hr 0 min 3 sec) 
Heartbeat CPU  0 instructions:    3000000 cycles:    3633570 heartbeat IPC: 0.64886 cumulative IPC: 0.64359 (Simulation time: 0 hr 0 min 5 sec) 
Heartbeat CPU  0 instructions:    4000000 cycles:    5198629 heartbeat IPC: 0.63895 cumulative IPC: 0.64203 (Simulation time: 0 hr 0 min 7 sec) 
Heartbeat CPU  0 instructions:    5000001 cycles:    6755065 heartbeat IPC: 0.64249 cumulative IPC: 0.64215 (Simulation time: 0 hr 0 min 9 sec) 
Heartbeat CPU  0 instructions:    6000002 cycles:    8312672 heartbeat IPC: 0.64201 cumulative IPC: 0.64212 (Simulation time: 0 hr 0 min 11 sec) 
Heartbeat CPU  0 instructions:    7000003 cycles:    9889347 heartbeat IPC: 0.63425 cumulative IPC: 0.64080 (Simulation time: 0 hr 0 min 12 sec) 
Heartbeat CPU  0 instructions:    8000000 cycles:   11446940 heartbeat IPC: 0.64201 cumulative IPC: 0.64097 (Simulation time: 0 hr 0 min 14 sec) 
Heartbeat CPU  0 instructions:    9000002 cycles:   13051376 heartbeat IPC: 0.62327 cumulative IPC: 0.63870 (Simulation time: 0 hr 0 min 16 sec) 
Heartbeat CPU  0 instructions:   10000002 cycles:   14622378 heartbeat IPC: 0.63654 cumulative IPC: 0.63846 (Simulation time: 0 hr 0 min 18 sec) 
Heartbeat CPU  0 instructions:   11000000 cycles:   16197341 heartbeat IPC: 0.63493 cumulative IPC: 0.63811 (Simulation time: 0 hr 0 min 20 sec) 
Finished CPU 0 instructions: 10000003 cycles: 15671364 cumulative IPC: 0.63811 (Simulation time: 0 hr 0 min 20 sec) 

ChampSim completed all CPUs

[ROI Statistics]
Core_0_instructions 10000003
Core_0_cycles 15671364
Core_0_IPC 0.63811

Core_0_branch_prediction_accuracy 99.96835
Core_0_branch_MPKI 0.00790
Core_0_average_ROB_occupancy_at_mispredict 242.34177

Core_0_L1D_total_access 3593948
Core_0_L1D_total_hit 3386146
Core_0_L1D_total_miss 207802
Core_0_L1D_loads 3034415
Core_0_L1D_load_hit 2833181
Core_0_L1D_load_miss 201234
Core_0_L1D_RFOs 559533
Core_0_L1D_RFO_hit 552965
Core_0_L1D_RFO_miss 6568
Core_0_L1D_prefetches 0
Core_0_L1D_prefetch_hit 0
Core_0_L1D_prefetch_miss 0
Core_0_L1D_writebacks 0
Core_0_L1D_writeback_hit 0
Core_0_L1D_writeback_miss 0
Core_0_L1D_prefetch_requested 0
Core_0_L1D_prefetch_dropped 0
Core_0_L1D_prefetch_issued 0
Core_0_L1D_prefetch_filled 0
Core_0_L1D_prefetch_useful 0
Core_0_L1D_prefetch_useless 0
Core_0_L1D_prefetch_late 0
Core_0_L1D_average_miss_latency 299.46252

Core_0_L1D_rq_access 4151341
Core_0_L1D_rq_forward 0
Core_0_L1D_rq_merged 1071578
Core_0_L1D_rq_to_cache 3079763
Core_0_L1D_rq_full 0

Core_0_L1D_wq_access 563344
Core_0_L1D_wq_forward 0
Core_0_L1D_wq_merged 0
Core_0_L1D_wq_to_cache 563344
Core_0_L1D_wq_full 0

Core_0_L1D_pq_access 0
Core_0_L1D_pq_forward 0
Core_0_L1D_pq_merged 0
Core_0_L1D_pq_to_cache 0
Core_0_L1D_pq_full 0

Core_0_L1D_acc_epochs 15532
Core_0_L1D_acc_level_0 15532
Core_0_L1D_acc_level_1 0
Core_0_L1D_acc_level_2 0
Core_0_L1D_acc_level_3 0
Core_0_L1D_acc_level_4 0
Core_0_L1D_acc_level_5 0
Core_0_L1D_acc_level_6 0
Core_0_L1D_acc_level_7 0
Core_0_L1D_acc_level_8 0
Core_0_L1D_acc_level_9 0

Core_0_L1I_total_access 2536178
Core_0_L1I_total_hit 2536173
Core_0_L1I_total_miss 5
Core_0_L1I_loads 2536178
Core_0_L1I_load_hit 2536173
Core_0_L1I_load_miss 5
Core_0_L1I_RFOs 0
Core_0_L1I_RFO_hit 0
Core_0_L1I_RFO_miss 0
Core_0_L1I_prefetches 0
Core_0_L1I_prefetch_hit 0
Core_0_L1I_prefetch_miss 0
Core_0_L1I_writebacks 0
Core_0_L1I_writeback_hit 0
Core_0_L1I_writeback_miss 0
Core_0_L1I_prefetch_requested 0
Core_0_L1I_prefetch_dropped 0
Core_0_L1I_prefetch_issued 0
Core_0_L1I_prefetch_filled 0
Core_0_L1I_prefetch_useful 0
Core_0_L1I_prefetch_useless 0
Core_0_L1I_prefetch_late 0
Core_0_L1I_average_miss_latency 199.20000

Core_0_L1I_rq_access 10000004
Core_0_L1I_rq_forward 0
Core_0_L1I_rq_merged 7463824
Core_0_L1I_rq_to_cache 2536180
Core_0_L1I_rq_full 0

Core_0_L1I_wq_access 0
Core_0_L1I_wq_forward 0
Core_0_L1I_wq_merged 0
Core_0_L1I_wq_to_cache 0
Core_0_L1I_wq_full 0

Core_0_L1I_pq_access 0
Core_0_L1I_pq_forward 0
Core_0_L1I_pq_merged 0
Core_0_L1I_pq_to_cache 0
Core_0_L1I_pq_full 0

Core_0_L1I_acc_epochs 15532
Core_0_L1I_acc_level_0 15532
Core_0_L1I_acc_level_1 0
Core_0_L1I_acc_level_2 0
Core_0_L1I_acc_level_3 0
Core_0_L1I_acc_level_4 0
Core_0_L1I_acc_level_5 0
Core_0_L1I_acc_level_6 0
Core_0_L1I_acc_level_7 0
Core_0_L1I_acc_level_8 0
Core_0_L1I_acc_level_9 0

Core_0_L2C_total_access 214754
Core_0_L2C_total_hit 24592
Core_0_L2C_total_miss 190162
Core_0_L2C_loads 201196
Core_0_L2C_load_hit 15951
Core_0_L2C_load_miss 185245
Core_0_L2C_RFOs 6444
Core_0_L2C_RFO_hit 1572
Core_0_L2C_RFO_miss 4872
Core_0_L2C_prefetches 0
Core_0_L2C_prefetch_hit 0
Core_0_L2C_prefetch_miss 0
Core_0_L2C_writebacks 7114
Core_0_L2C_writeback_hit 7069
Core_0_L2C_writeback_miss 45
Core_0_L2C_prefetch_requested 0
Core_0_L2C_prefetch_dropped 0
Core_0_L2C_prefetch_issued 0
Core_0_L2C_prefetch_filled 0
Core_0_L2C_prefetch_useful 0
Core_0_L2C_prefetch_useless 0
Core_0_L2C_prefetch_late 0
Core_0_L2C_average_miss_latency 310.16790

Core_0_L2C_rq_access 207808
Core_0_L2C_rq_forward 0
Core_0_L2C_rq_merged 0
Core_0_L2C_rq_to_cache 207641
Core_0_L2C_rq_full 0

Core_0_L2C_wq_access 7114
Core_0_L2C_wq_forward 167
Core_0_L2C_wq_merged 0
Core_0_L2C_wq_to_cache 7114
Core_0_L2C_wq_full 0

Core_0_L2C_pq_access 0
Core_0_L2C_pq_forward 0
Core_0_L2C_pq_merged 0
Core_0_L2C_pq_to_cache 0
Core_0_L2C_pq_full 0

Core_0_L2C_acc_epochs 15532
Core_0_L2C_acc_level_0 15532
Core_0_L2C_acc_level_1 0
Core_0_L2C_acc_level_2 0
Core_0_L2C_acc_level_3 0
Core_0_L2C_acc_level_4 0
Core_0_L2C_acc_level_5 0
Core_0_L2C_acc_level_6 0
Core_0_L2C_acc_level_7 0
Core_0_L2C_acc_level_8 0
Core_0_L2C_acc_level_9 0

Core_0_LLC_total_access 195057
Core_0_LLC_total_hit 559
Core_0_LLC_total_miss 194498
Core_0_LLC_loads 185245
Core_0_LLC_load_hit 4
Core_0_LLC_load_miss 185241
Core_0_LLC_RFOs 4872
Core_0_LLC_RFO_hit 0
Core_0_LLC_RFO_miss 4872
Core_0_LLC_prefetches 0
Core_0_LLC_prefetch_hit 0
Core_0_LLC_prefetch_miss 0
Core_0_LLC_writebacks 4940
Core_0_LLC_writeback_hit 555
Core_0_LLC_writeback_miss 4385
Core_0_LLC_prefetch_requested 0
Core_0_LLC_prefetch_dropped 0
Core_0_LLC_prefetch_issued 0
Core_0_LLC_prefetch_filled 0
Core_0_LLC_prefetch_useful 0
Core_0_LLC_prefetch_useless 0
Core_0_LLC_prefetch_late 0
Core_0_LLC_average_miss_latency 273.17387

Core_0_LLC_rq_access 190118
Core_0_LLC_rq_forward 0
Core_0_LLC_rq_merged 0
Core_0_LLC_rq_to_cache 190118
Core_0_LLC_rq_full 0

Core_0_LLC_wq_access 4940
Core_0_LLC_wq_forward 0
Core_0_LLC_wq_merged 0
Core_0_LLC_wq_to_cache 4940
Core_0_LLC_wq_full 0

Core_0_LLC_pq_access 0
Core_0_LLC_pq_forward 0
Core_0_LLC_pq_merged 0
Core_0_LLC_pq_to_cache 0
Core_0_LLC_pq_full 0

Core_0_LLC_acc_epochs 15818
Core_0_LLC_acc_level_0 15818
Core_0_LLC_acc_level_1 0
Core_0_LLC_acc_level_2 0
Core_0_LLC_acc_level_3 0
Core_0_LLC_acc_level_4 0
Core_0_LLC_acc_level_5 0
Core_0_LLC_acc_level_6 0
Core_0_LLC_acc_level_7 0
Core_0_LLC_acc_level_8 0
Core_0_LLC_acc_level_9 0

Core_0_major_page_fault 0
Core_0_minor_page_fault 3283

Channel_0_RQ_row_buffer_hit 151326
Channel_0_RQ_row_buffer_miss 38787
Channel_0_WQ_row_buffer_hit 6
Channel_0_WQ_row_buffer_miss 126
Channel_0_WQ_full 0
Channel_0_dbus_congested 14293

avg_congested_cycle 6

DRAM_bw_pochs 63271
DRAM_bw_level_0 33545
DRAM_bw_level_1 18916
DRAM_bw_level_2 6571
DRAM_bw_level_3 4239
