Original cmd-> /cluster/home/vlnitu/CA-Lab4-24-vlnitu/Pythia/bin/perceptron-no-multi-no-ship-1core --warmup_instructions=1000000 --simulation_instructions=10000000 --l2c_prefetcher_types=scooby --config=/cluster/home/vlnitu/CA-Lab4-24-vlnitu/Pythia/config/pythia.ini --mail-type=BEGIN,END  -traces /cluster/home/vlnitu/CA-Lab4-24-vlnitu/Pythia/traces/605.mcf_s-1644B.champsimtrace.xz
*************************************************
   ChampSim Multicore Out-of-Order Simulator
   Last compiled: Nov 19 2024 20:10:11
*************************************************
parsing config file: /cluster/home/vlnitu/CA-Lab4-24-vlnitu/Pythia/config/pythia.ini
unable to parse section: , name: mail-type, value: BEGIN,END

trace_0 /cluster/home/vlnitu/CA-Lab4-24-vlnitu/Pythia/traces/605.mcf_s-1644B.champsimtrace.xz
adding L2C_PREFETCHER: Scooby
Initialize SHIP state
warmup_instructions 1000000
simulation_instructions 10000000
champsim_seed 273
measure_ipc 0
measure_ipc_epoch 1000
measure_dram_bw 1
measure_dram_bw_epoch 256
measure_cache_acc 1
measure_cache_acc_epoch 1024
l1d_perfect 0
l2c_perfect 0
llc_perfect 0
l1d_semi_perfect 0
l2c_semi_perfect 0
llc_semi_perfect 0
semi_perfect_cache_page_buffer_size 64

num_cpus 1
cpu_freq 4000
dram_io_freq 2400
page_size 4096
block_size 64
max_read_per_cycle 8
max_fill_per_cycle 1
dram_channels 1
log2_dram_channels 0
dram_ranks 1
dram_banks 8
dram_rows 65536
dram_columns 128
dram_row_size 8
dram_size 4096
dram_pages 1048576

fetch_width 6
decode_width 6
exec_width 4
lq_width 2
sq_width 2
retire_width 4
scheduler_size 128
branch_mispredict_penalty 20
rob_size 256
lq_size 72
sq_size 56
num_instr_destinations_sparc 4
num_instr_destinations 2
num_instr_sources 4

itlb_set 16
itlb_way 8
itlb_rq_size 16
itlb_wq_size 16
itlb_pq_size 0
itlb_mshr_size 8
itlb_latency 1

dtlb_set 16
dtlb_way 4
dtlb_rq_size 16
dtlb_wq_size 16
dtlb_pq_size 0
dtlb_mshr_size 8
dtlb_latency 1

stlb_set 128
stlb_way 12
stlb_rq_size 32
stlb_wq_size 32
stlb_pq_size 0
stlb_mshr_size 16
stlb_latency 8

l1i_size 32
l1i_set 64
l1i_way 8
l1i_rq_size 64
l1i_wq_size 64
l1i_pq_size 8
l1i_mshr_size 8
l1i_latency 1

l1d_size 32
l1d_set 64
l1d_way 8
l1d_rq_size 64
l1d_wq_size 64
l1d_pq_size 8
l1d_mshr_size 16
l1d_latency 4

l2c_size 256
l2c_set 512
l2c_way 8
l2c_rq_size 32
l2c_wq_size 32
l2c_pq_size 32
l2c_mshr_size 32
l2c_latency 10

llc_size 2048
llc_set 2048
llc_way 16
llc_rq_size 32
llc_wq_size 32
llc_pq_size 32
llc_mshr_size 64
llc_latency 20

dram_channel_width 8
dram_wq_size 64
dram_rq_size 64
tRP 15
tRCD 15
tCAS 12.5
dram_dbus_turn_around_time 30
dram_write_high_wm 56
dram_write_low_wm 48
min_dram_writes_per_switch 16
dram_mtps 2400
dram_dbus_return_time 13

scooby_alpha 0.0065088
scooby_gamma 0.556301
scooby_epsilon 0.00182284
scooby_state_num_bits 10
scooby_max_states 1024
scooby_seed 200
scooby_policy EGreedy
scooby_learning_type SARSA
scooby_actions 1,3,4,5,10,11,12,22,23,30,32,-1,-3,-6,0,
scooby_max_actions 15
scooby_pt_size 256
scooby_st_size 64
scooby_max_pcs 5
scooby_max_offsets 5
scooby_max_deltas 5
scooby_reward_none -4
scooby_reward_incorrect -8
scooby_reward_correct_untimely 12
scooby_reward_correct_timely 20
scooby_brain_zero_init 0
scooby_enable_reward_all 0
scooby_enable_track_multiple 0
scooby_enable_reward_out_of_bounds 1
scooby_reward_out_of_bounds -12
scooby_state_type 1
scooby_state_hash_type 11
scooby_access_debug 0
scooby_print_access_debug 0
scooby_print_access_debug_pc deadbeef
scooby_print_access_debug_pc_count 0
scooby_print_trace 0
scooby_enable_state_action_stats 1
scooby_enable_reward_tracker_hit 0
scooby_reward_tracker_hit -2
scooby_enable_featurewise_engine 1
scooby_pref_degree 1
scooby_enable_dyn_degree 1
scooby_max_to_avg_q_thresholds 0.5,1,2,
scooby_dyn_degrees 1,2,4,4,
scooby_multi_deg_select_type 2
scooby_last_pref_offset_conf_thresholds 1,3,8,
scooby_dyn_degrees_type2 1,2,4,6,
scooby_action_tracker_size 2
scooby_high_bw_thresh 4
scooby_enable_hbw_reward 1
scooby_reward_hbw_correct_timely 20
scooby_reward_hbw_correct_untimely 12
scooby_reward_hbw_incorrect -14
scooby_reward_hbw_none -2
scooby_reward_hbw_out_of_bounds -12
scooby_reward_hbw_tracker_hit -2
scooby_last_pref_offset_conf_thresholds_hbw 1,3,8,
scooby_dyn_degrees_type2_hbw 1,2,4,6,

le_enable_trace 0
le_trace_interval 0
le_trace_file_name 
le_trace_state 0
le_enable_score_plot 0
le_plot_file_name 
le_plot_actions 
le_enable_action_trace 0
le_action_trace_interval 0
le_action_trace_name 
le_enable_action_plot 0

le_featurewise_active_features PC, PC_Delta
le_featurewise_num_tilings 3,3,
le_featurewise_num_tiles 128,128,
le_featurewise_hash_types 2,2,
le_featurewise_enable_tiling_offset 1,1,
le_featurewise_max_q_thresh 0.5
le_featurewise_enable_action_fallback 1
le_featurewise_feature_weights 1,1,
le_featurewise_enable_dynamic_weight 0
le_featurewise_weight_gradient 0.001
le_featurewise_disable_adjust_weight_all_features_align 1
le_featurewise_selective_update 0
le_featurewise_pooling_type 2
le_featurewise_enable_dyn_action_fallback 1
le_featurewise_bw_acc_check_level 1
le_featurewise_acc_thresh 2
le_featurewise_enable_trace 0
le_featurewise_trace_feature_type 0
le_featurewise_trace_feature 
le_featurewise_trace_interval 0
le_featurewise_trace_record_count 0
le_featurewise_trace_file_name 
le_featurewise_enable_score_plot 0
le_featurewise_plot_actions 
le_featurewise_plot_file_name 


Heartbeat CPU  0 instructions:    1000000 cycles:    1087554 heartbeat IPC: 0.91949 cumulative IPC: 0.91949 (Simulation time: 0 hr 0 min 2 sec) 

Warmup complete CPU  0 instructions:    1000001 cycles:    1087557 (Simulation time: 0 hr 0 min 2 sec) 

Heartbeat CPU  0 instructions:    2000003 cycles:    7643705 heartbeat IPC: 0.15253 cumulative IPC: 0.15253 (Simulation time: 0 hr 0 min 6 sec) 
Heartbeat CPU  0 instructions:    3000000 cycles:   14102108 heartbeat IPC: 0.15484 cumulative IPC: 0.15367 (Simulation time: 0 hr 0 min 9 sec) 
Heartbeat CPU  0 instructions:    4000000 cycles:   20383741 heartbeat IPC: 0.15919 cumulative IPC: 0.15547 (Simulation time: 0 hr 0 min 13 sec) 
Heartbeat CPU  0 instructions:    5000002 cycles:   26787703 heartbeat IPC: 0.15615 cumulative IPC: 0.15564 (Simulation time: 0 hr 0 min 17 sec) 
Heartbeat CPU  0 instructions:    6000002 cycles:   33186481 heartbeat IPC: 0.15628 cumulative IPC: 0.15577 (Simulation time: 0 hr 0 min 20 sec) 
Heartbeat CPU  0 instructions:    7000000 cycles:   39451082 heartbeat IPC: 0.15963 cumulative IPC: 0.15640 (Simulation time: 0 hr 0 min 24 sec) 
Heartbeat CPU  0 instructions:    8000000 cycles:   45784056 heartbeat IPC: 0.15790 cumulative IPC: 0.15661 (Simulation time: 0 hr 0 min 28 sec) 
Heartbeat CPU  0 instructions:    9000000 cycles:   52165586 heartbeat IPC: 0.15670 cumulative IPC: 0.15662 (Simulation time: 0 hr 0 min 31 sec) 
Heartbeat CPU  0 instructions:   10000002 cycles:   58375630 heartbeat IPC: 0.16103 cumulative IPC: 0.15710 (Simulation time: 0 hr 0 min 35 sec) 
Heartbeat CPU  0 instructions:   11000002 cycles:   64600316 heartbeat IPC: 0.16065 cumulative IPC: 0.15745 (Simulation time: 0 hr 0 min 39 sec) 
Finished CPU 0 instructions: 10000001 cycles: 63512759 cumulative IPC: 0.15745 (Simulation time: 0 hr 0 min 39 sec) 

ChampSim completed all CPUs

[ROI Statistics]
Core_0_instructions 10000001
Core_0_cycles 63512759
Core_0_IPC 0.15745

Core_0_branch_prediction_accuracy 92.69164
Core_0_branch_MPKI 5.88690
Core_0_average_ROB_occupancy_at_mispredict 115.27118

Core_0_L1D_total_access 5127774
Core_0_L1D_total_hit 4232483
Core_0_L1D_total_miss 895291
Core_0_L1D_loads 3150925
Core_0_L1D_load_hit 2692924
Core_0_L1D_load_miss 458001
Core_0_L1D_RFOs 1976849
Core_0_L1D_RFO_hit 1539559
Core_0_L1D_RFO_miss 437290
Core_0_L1D_prefetches 0
Core_0_L1D_prefetch_hit 0
Core_0_L1D_prefetch_miss 0
Core_0_L1D_writebacks 0
Core_0_L1D_writeback_hit 0
Core_0_L1D_writeback_miss 0
Core_0_L1D_prefetch_requested 0
Core_0_L1D_prefetch_dropped 0
Core_0_L1D_prefetch_issued 0
Core_0_L1D_prefetch_filled 0
Core_0_L1D_prefetch_useful 0
Core_0_L1D_prefetch_useless 0
Core_0_L1D_prefetch_late 0
Core_0_L1D_average_miss_latency 268.49506

Core_0_L1D_rq_access 3957593
Core_0_L1D_rq_forward 0
Core_0_L1D_rq_merged 761342
Core_0_L1D_rq_to_cache 3196225
Core_0_L1D_rq_full 0

Core_0_L1D_wq_access 3498347
Core_0_L1D_wq_forward 26
Core_0_L1D_wq_merged 0
Core_0_L1D_wq_to_cache 3498347
Core_0_L1D_wq_full 0

Core_0_L1D_pq_access 0
Core_0_L1D_pq_forward 0
Core_0_L1D_pq_merged 0
Core_0_L1D_pq_to_cache 0
Core_0_L1D_pq_full 0

Core_0_L1D_acc_epochs 39879
Core_0_L1D_acc_level_0 39879
Core_0_L1D_acc_level_1 0
Core_0_L1D_acc_level_2 0
Core_0_L1D_acc_level_3 0
Core_0_L1D_acc_level_4 0
Core_0_L1D_acc_level_5 0
Core_0_L1D_acc_level_6 0
Core_0_L1D_acc_level_7 0
Core_0_L1D_acc_level_8 0
Core_0_L1D_acc_level_9 0

Core_0_L1I_total_access 2263553
Core_0_L1I_total_hit 2263553
Core_0_L1I_total_miss 0
Core_0_L1I_loads 2263553
Core_0_L1I_load_hit 2263553
Core_0_L1I_load_miss 0
Core_0_L1I_RFOs 0
Core_0_L1I_RFO_hit 0
Core_0_L1I_RFO_miss 0
Core_0_L1I_prefetches 0
Core_0_L1I_prefetch_hit 0
Core_0_L1I_prefetch_miss 0
Core_0_L1I_writebacks 0
Core_0_L1I_writeback_hit 0
Core_0_L1I_writeback_miss 0
Core_0_L1I_prefetch_requested 0
Core_0_L1I_prefetch_dropped 0
Core_0_L1I_prefetch_issued 0
Core_0_L1I_prefetch_filled 0
Core_0_L1I_prefetch_useful 0
Core_0_L1I_prefetch_useless 0
Core_0_L1I_prefetch_late 0
Core_0_L1I_average_miss_latency -nan

Core_0_L1I_rq_access 10000168
Core_0_L1I_rq_forward 0
Core_0_L1I_rq_merged 7736615
Core_0_L1I_rq_to_cache 2263553
Core_0_L1I_rq_full 0

Core_0_L1I_wq_access 0
Core_0_L1I_wq_forward 0
Core_0_L1I_wq_merged 0
Core_0_L1I_wq_to_cache 0
Core_0_L1I_wq_full 0

Core_0_L1I_pq_access 0
Core_0_L1I_pq_forward 0
Core_0_L1I_pq_merged 0
Core_0_L1I_pq_to_cache 0
Core_0_L1I_pq_full 0

Core_0_L1I_acc_epochs 39879
Core_0_L1I_acc_level_0 39879
Core_0_L1I_acc_level_1 0
Core_0_L1I_acc_level_2 0
Core_0_L1I_acc_level_3 0
Core_0_L1I_acc_level_4 0
Core_0_L1I_acc_level_5 0
Core_0_L1I_acc_level_6 0
Core_0_L1I_acc_level_7 0
Core_0_L1I_acc_level_8 0
Core_0_L1I_acc_level_9 0

Core_0_L2C_total_access 2446397
Core_0_L2C_total_hit 1590884
Core_0_L2C_total_miss 855513
Core_0_L2C_loads 457982
Core_0_L2C_load_hit 284233
Core_0_L2C_load_miss 173749
Core_0_L2C_RFOs 437290
Core_0_L2C_RFO_hit 18
Core_0_L2C_RFO_miss 437272
Core_0_L2C_prefetches 655834
Core_0_L2C_prefetch_hit 411701
Core_0_L2C_prefetch_miss 244133
Core_0_L2C_writebacks 895291
Core_0_L2C_writeback_hit 894932
Core_0_L2C_writeback_miss 359
Core_0_L2C_prefetch_requested 1145484
Core_0_L2C_prefetch_dropped 0
Core_0_L2C_prefetch_issued 1145484
Core_0_L2C_prefetch_filled 271436
Core_0_L2C_prefetch_useful 247146
Core_0_L2C_prefetch_useless 24223
Core_0_L2C_prefetch_late 13075
Core_0_L2C_average_miss_latency 373.28249

Core_0_L2C_rq_access 895293
Core_0_L2C_rq_forward 0
Core_0_L2C_rq_merged 0
Core_0_L2C_rq_to_cache 895274
Core_0_L2C_rq_full 0

Core_0_L2C_wq_access 895291
Core_0_L2C_wq_forward 19
Core_0_L2C_wq_merged 0
Core_0_L2C_wq_to_cache 895291
Core_0_L2C_wq_full 0

Core_0_L2C_pq_access 1145484
Core_0_L2C_pq_forward 0
Core_0_L2C_pq_merged 247190
Core_0_L2C_pq_to_cache 898294
Core_0_L2C_pq_full 0

Core_0_L2C_acc_epochs 39879
Core_0_L2C_acc_level_0 1
Core_0_L2C_acc_level_1 4
Core_0_L2C_acc_level_2 16
Core_0_L2C_acc_level_3 100
Core_0_L2C_acc_level_4 342
Core_0_L2C_acc_level_5 672
Core_0_L2C_acc_level_6 1721
Core_0_L2C_acc_level_7 4291
Core_0_L2C_acc_level_8 7607
Core_0_L2C_acc_level_9 25125

Core_0_LLC_total_access 1689281
Core_0_LLC_total_hit 323295
Core_0_LLC_total_miss 1365986
Core_0_LLC_loads 160722
Core_0_LLC_load_hit 119724
Core_0_LLC_load_miss 40998
Core_0_LLC_RFOs 437272
Core_0_LLC_RFO_hit 9253
Core_0_LLC_RFO_miss 428019
Core_0_LLC_prefetches 257154
Core_0_LLC_prefetch_hit 8102
Core_0_LLC_prefetch_miss 249052
Core_0_LLC_writebacks 834133
Core_0_LLC_writeback_hit 186216
Core_0_LLC_writeback_miss 647917
Core_0_LLC_prefetch_requested 0
Core_0_LLC_prefetch_dropped 0
Core_0_LLC_prefetch_issued 0
Core_0_LLC_prefetch_filled 275845
Core_0_LLC_prefetch_useful 1067
Core_0_LLC_prefetch_useless 274005
Core_0_LLC_prefetch_late 0
Core_0_LLC_average_miss_latency 208.35523

Core_0_LLC_rq_access 598002
Core_0_LLC_rq_forward 0
Core_0_LLC_rq_merged 0
Core_0_LLC_rq_to_cache 597996
Core_0_LLC_rq_full 0

Core_0_LLC_wq_access 834133
Core_0_LLC_wq_forward 6
Core_0_LLC_wq_merged 0
Core_0_LLC_wq_to_cache 834133
Core_0_LLC_wq_full 0

Core_0_LLC_pq_access 284511
Core_0_LLC_pq_forward 0
Core_0_LLC_pq_merged 0
Core_0_LLC_pq_to_cache 284511
Core_0_LLC_pq_full 0

Core_0_LLC_acc_epochs 63087
Core_0_LLC_acc_level_0 62480
Core_0_LLC_acc_level_1 448
Core_0_LLC_acc_level_2 118
Core_0_LLC_acc_level_3 0
Core_0_LLC_acc_level_4 0
Core_0_LLC_acc_level_5 41
Core_0_LLC_acc_level_6 0
Core_0_LLC_acc_level_7 0
Core_0_LLC_acc_level_8 0
Core_0_LLC_acc_level_9 0

Core_0_major_page_fault 0
Core_0_minor_page_fault 102487

scooby_st_lookup 504692
scooby_st_hit 415117
scooby_st_evict 89511
scooby_st_insert 89575
scooby_st_streaming 0

scooby_predict_called 504692
scooby_predict_out_of_bounds 7545
scooby_predict_action_1 253504
scooby_predict_issue_action_1 225473
scooby_predict_hit_action_1 28031
scooby_predict_out_of_bounds_action_1 3977
scooby_predict_action_3 29824
scooby_predict_issue_action_3 29765
scooby_predict_hit_action_3 59
scooby_predict_out_of_bounds_action_3 1478
scooby_predict_action_4 2045
scooby_predict_issue_action_4 2034
scooby_predict_hit_action_4 11
scooby_predict_out_of_bounds_action_4 122
scooby_predict_action_5 1148
scooby_predict_issue_action_5 1142
scooby_predict_hit_action_5 6
scooby_predict_out_of_bounds_action_5 71
scooby_predict_action_10 979
scooby_predict_issue_action_10 972
scooby_predict_hit_action_10 7
scooby_predict_out_of_bounds_action_10 149
scooby_predict_action_11 998
scooby_predict_issue_action_11 991
scooby_predict_hit_action_11 7
scooby_predict_out_of_bounds_action_11 126
scooby_predict_action_12 966
scooby_predict_issue_action_12 959
scooby_predict_hit_action_12 7
scooby_predict_out_of_bounds_action_12 151
scooby_predict_action_22 792
scooby_predict_issue_action_22 788
scooby_predict_hit_action_22 4
scooby_predict_out_of_bounds_action_22 238
scooby_predict_action_23 782
scooby_predict_issue_action_23 775
scooby_predict_hit_action_23 7
scooby_predict_out_of_bounds_action_23 259
scooby_predict_action_30 602
scooby_predict_issue_action_30 594
scooby_predict_hit_action_30 8
scooby_predict_out_of_bounds_action_30 352
scooby_predict_action_32 538
scooby_predict_issue_action_32 533
scooby_predict_hit_action_32 5
scooby_predict_out_of_bounds_action_32 387
scooby_predict_action_-1 1208
scooby_predict_issue_action_-1 1161
scooby_predict_hit_action_-1 47
scooby_predict_out_of_bounds_action_-1 22
scooby_predict_action_-3 1325
scooby_predict_issue_action_-3 1282
scooby_predict_hit_action_-3 43
scooby_predict_out_of_bounds_action_-3 74
scooby_predict_action_-6 1083
scooby_predict_issue_action_-6 1058
scooby_predict_hit_action_-6 25
scooby_predict_out_of_bounds_action_-6 139
scooby_predict_action_0 201353
scooby_predict_issue_action_0 0
scooby_predict_hit_action_0 0
scooby_predict_out_of_bounds_action_0 0
scooby_predict_multi_deg_called 212312
scooby_predict_predicted 1145484
scooby_predict_multi_deg 877957
scooby_predict_multi_deg_2 207624
scooby_predict_multi_deg_3 185625
scooby_predict_multi_deg_4 181140
scooby_predict_multi_deg_5 153444
scooby_predict_multi_deg_6 150124
scooby_predict_multi_deg_7 0
scooby_predict_multi_deg_8 0
scooby_predict_multi_deg_9 0
scooby_predict_multi_deg_10 0
scooby_predict_multi_deg_11 0
scooby_predict_multi_deg_12 0
scooby_predict_multi_deg_13 0
scooby_predict_multi_deg_14 0
scooby_predict_multi_deg_15 0
scooby_predict_multi_deg_16 0

scooby_selected_deg_1 55215
scooby_selected_deg_2 17436
scooby_selected_deg_3 0
scooby_selected_deg_4 28165
scooby_selected_deg_5 0
scooby_selected_deg_6 166711
scooby_selected_deg_7 0
scooby_selected_deg_8 0
scooby_selected_deg_9 0
scooby_selected_deg_10 0
scooby_selected_deg_11 0
scooby_selected_deg_12 0
scooby_selected_deg_13 0
scooby_selected_deg_14 0
scooby_selected_deg_15 0
scooby_selected_deg_16 0

scooby_state_4033a0|0|0 3752,0,0,0,0,0,0,2,1,0,1,1,1,0,1,3759,
scooby_state_4033a0|1|1 3197,1,0,0,0,3,1,1,0,0,0,1,1,0,0,3205,
scooby_state_4033b9|63|0 1,3,3,1,7,1,2,5,1,0,0,4,1,5,2932,2966,
scooby_state_4033a0|14|1 2840,0,0,0,0,0,0,0,0,0,0,2,1,0,1,2844,
scooby_state_4033a0|7|1 2835,0,0,0,2,1,1,0,0,1,1,2,0,1,0,2844,
scooby_state_4033a0|59|1 2838,0,0,1,1,1,0,1,1,0,0,0,1,0,0,2844,
scooby_state_4033a0|58|1 2841,0,0,0,0,0,0,0,0,0,0,0,0,0,0,2841,
scooby_state_4033a0|18|1 2835,0,0,2,0,0,0,1,0,0,0,1,1,0,0,2840,
scooby_state_4033a0|28|1 2836,0,1,1,1,0,0,0,0,0,1,0,0,0,0,2840,
scooby_state_4033a0|6|1 2832,1,0,0,2,0,1,2,0,0,1,0,0,0,0,2839,
scooby_state_4033a0|34|1 2834,1,0,0,1,0,0,1,0,0,1,1,0,0,0,2839,
scooby_state_4033a0|13|1 2835,0,0,1,1,0,0,0,0,0,0,1,1,0,0,2839,
scooby_state_4033a0|15|1 2832,0,0,1,0,1,1,0,0,0,1,0,2,0,0,2838,
scooby_state_4033a0|56|1 2833,2,0,0,0,0,0,0,0,0,0,0,2,0,1,2838,
scooby_state_4033a0|35|1 2833,1,0,1,0,0,0,0,0,1,0,0,0,1,1,2838,
scooby_state_4033a0|33|1 2834,1,1,0,0,0,0,0,0,0,0,1,1,0,0,2838,
scooby_state_4033a0|55|1 2834,0,0,0,1,0,1,0,0,0,0,0,1,0,0,2837,
scooby_state_4033a0|60|1 2833,0,0,0,1,1,0,0,0,1,0,0,1,0,0,2837,
scooby_state_4033a0|57|1 2833,0,0,0,0,0,0,2,0,1,1,0,0,0,0,2837,
scooby_state_4033a0|27|1 2834,0,0,0,1,1,0,1,0,0,0,0,0,0,0,2837,
scooby_state_4033a0|8|1 2834,1,0,0,0,0,0,0,0,0,0,0,1,0,0,2836,
scooby_state_4033a0|5|1 2828,0,0,0,2,0,0,2,1,1,0,0,0,2,0,2836,
scooby_state_4033a0|21|1 2830,0,0,0,0,0,0,0,0,1,1,1,1,1,1,2836,
scooby_state_4033a0|19|1 2833,0,0,1,0,0,0,1,0,0,0,0,0,0,0,2835,
scooby_state_4033a0|24|1 2828,0,0,0,1,2,0,0,1,1,1,0,0,1,0,2835,
scooby_state_4033a0|63|1 2826,1,0,0,1,1,0,0,1,0,0,0,2,2,1,2835,
scooby_state_4033a0|29|1 2833,0,1,0,0,0,0,0,1,0,0,0,0,0,0,2835,
scooby_state_4033a0|36|1 2829,1,0,1,0,1,1,0,0,0,0,0,0,0,2,2835,
scooby_state_4033a0|62|1 2829,0,1,0,0,0,0,1,0,0,0,0,0,2,1,2834,
scooby_state_4033a0|46|1 2832,0,0,0,0,0,0,0,1,1,0,0,0,0,0,2834,
scooby_state_4033a0|17|1 2825,1,1,0,1,1,3,0,0,0,0,0,0,1,1,2834,
scooby_state_4033a0|54|1 2825,0,1,1,0,0,3,0,0,0,0,1,2,1,0,2834,
scooby_state_4033a0|40|1 2831,0,0,0,0,0,0,0,0,3,0,0,0,0,0,2834,
scooby_state_4033a0|41|1 2826,1,0,1,0,1,1,0,1,2,1,0,0,0,0,2834,
scooby_state_4033a0|50|1 2830,0,0,0,1,0,1,0,1,0,0,0,0,0,0,2833,
scooby_state_4033a0|9|1 2829,0,0,0,2,1,1,0,0,0,0,0,0,0,0,2833,
scooby_state_4033a0|22|1 2826,0,0,1,0,0,0,0,0,1,3,0,0,2,0,2833,
scooby_state_4033a0|16|1 2826,1,1,0,1,0,1,2,0,0,0,0,1,0,0,2833,
scooby_state_4033a0|12|1 2828,0,3,0,0,1,0,0,0,0,0,0,0,0,1,2833,
scooby_state_4033a0|32|1 2829,1,0,0,1,0,0,0,0,0,1,0,0,0,1,2833,
scooby_state_4033a0|45|1 2827,1,0,1,0,0,0,0,1,1,0,0,0,1,0,2832,
scooby_state_4033a0|44|1 2824,0,1,0,0,0,1,1,0,1,0,1,1,1,1,2832,
scooby_state_4033a0|25|1 2830,0,0,0,1,1,0,0,0,0,0,0,0,0,0,2832,
scooby_state_4033a0|10|1 2827,1,0,0,0,0,0,1,2,0,0,0,0,0,1,2832,
scooby_state_4033a0|43|1 2828,1,0,0,0,0,2,0,0,0,0,0,0,0,1,2832,
scooby_state_4033a0|42|1 2827,0,0,0,0,0,0,1,1,0,0,1,1,0,0,2831,
scooby_state_4033a0|11|1 2826,0,0,0,1,0,0,1,1,1,0,1,0,0,0,2831,
scooby_state_4033a0|23|1 2827,0,0,0,1,0,1,1,0,1,0,0,0,0,0,2831,
scooby_state_4033a0|51|1 2828,1,0,0,0,0,0,0,1,0,0,0,0,0,1,2831,
scooby_state_4033a0|31|1 2829,0,0,0,0,0,0,0,0,0,0,0,1,1,0,2831,
scooby_state_4033a0|38|1 2825,0,2,1,0,0,0,0,0,0,0,0,0,2,1,2831,
scooby_state_4033a0|20|1 2828,1,0,1,0,0,0,0,1,0,0,0,0,0,0,2831,
scooby_state_4033a0|26|1 2821,0,0,0,1,1,0,1,0,2,0,0,0,2,2,2830,
scooby_state_4033a0|37|1 2826,1,1,0,0,0,0,0,0,0,0,0,0,0,2,2830,
scooby_state_4033a0|49|1 2825,0,0,1,2,0,0,1,0,0,0,0,0,0,1,2830,
scooby_state_4033a0|39|1 2827,0,0,0,0,0,1,0,0,0,0,2,0,0,0,2830,
scooby_state_4033a0|53|1 2826,0,0,1,0,0,1,0,0,1,0,0,0,1,0,2830,
scooby_state_4033a0|47|1 2826,0,0,0,1,1,0,1,0,0,0,1,0,0,0,2830,
scooby_state_4033a0|30|1 2820,1,0,1,0,1,1,0,0,0,1,2,0,1,1,2829,
scooby_state_4033a0|61|1 2824,0,0,0,0,1,0,0,1,0,1,1,0,1,0,2829,
scooby_state_4033a0|52|1 2824,0,1,0,0,0,0,0,1,0,0,1,1,0,0,2828,
scooby_state_4033b9|62|0 0,2,2,2,5,1,1,2,3,2,4,4,0,5,2793,2826,
scooby_state_4033a0|48|1 2822,0,0,0,0,1,0,1,0,0,1,0,0,0,0,2825,
scooby_state_4033a0|4|1 2819,0,1,1,0,1,0,0,0,0,0,0,0,0,0,2822,
scooby_state_4033a0|2|1 2773,0,2,0,1,0,0,1,0,1,0,1,0,1,0,2780,
scooby_state_4033a0|3|1 2765,0,0,0,0,0,0,0,1,0,0,1,0,0,0,2767,
scooby_state_4033b9|61|0 3,1,3,2,2,3,6,2,3,2,0,8,2,2,2603,2642,
scooby_state_4033b9|59|0 3,3,2,2,4,3,4,2,3,0,1,2,3,1,2461,2494,
scooby_state_4033b9|58|0 3,4,0,1,1,1,2,3,1,0,2,6,5,1,2410,2440,
scooby_state_4033b9|57|0 1,1,4,1,2,0,3,2,1,0,1,3,1,4,2335,2359,
scooby_state_4033b9|56|0 3,1,0,1,0,2,3,3,1,1,2,1,2,1,2337,2358,
scooby_state_4033b9|60|0 3,1,1,5,0,5,1,1,0,2,1,6,2,1,2210,2239,
scooby_state_4033b9|55|0 0,1,5,1,4,1,1,1,3,0,2,2,2,0,2174,2197,
scooby_state_4033b9|54|0 2,2,1,1,0,0,3,2,1,1,3,0,2,2,2082,2102,
scooby_state_4033b9|53|0 1,1,8,0,1,0,0,0,1,3,2,3,0,0,1929,1949,
scooby_state_4033b9|52|0 2,0,1,2,1,0,1,1,2,3,1,4,0,0,1785,1803,
scooby_state_4033b9|49|0 1,3,1,2,0,2,0,0,1,3,2,1,0,1,1733,1750,
scooby_state_4033b9|51|0 1,2,1,2,1,1,1,0,1,3,7,2,1,0,1707,1730,
scooby_state_4033b9|46|0 0,2,0,1,0,1,1,2,0,2,0,1,2,4,1712,1728,
scooby_state_4033b9|48|0 1,2,3,0,0,1,1,3,3,2,0,2,2,6,1665,1691,
scooby_state_4033b9|50|0 1,2,1,0,0,1,0,1,1,2,0,2,0,1,1669,1681,
scooby_state_4033b9|47|0 1,0,2,0,3,1,0,1,1,4,0,3,2,1,1549,1568,
scooby_state_4033b9|45|0 0,2,1,0,1,1,4,2,0,2,2,1,3,0,1544,1563,
scooby_state_4033b9|43|0 0,1,1,3,1,1,0,0,2,1,2,3,2,1,1458,1476,
scooby_state_4033b9|44|0 0,1,1,2,2,2,0,0,1,0,1,1,2,1,1379,1393,
scooby_state_4033b9|41|0 1,1,1,0,1,1,0,0,2,2,1,3,4,2,1369,1388,
scooby_state_4033b9|40|0 0,1,2,0,1,0,1,0,0,1,2,2,1,0,1360,1371,
scooby_state_4033b9|39|0 2,0,0,0,1,0,2,0,0,1,1,0,1,3,1278,1289,
scooby_state_4033b9|36|0 1,0,0,0,0,0,0,1,1,1,0,2,1,1,1235,1243,
scooby_state_4033b9|31|0 1,1,0,0,0,1,1,1,2,1,0,3,1,1,1194,1207,
scooby_state_4033b9|38|0 0,0,0,1,0,0,1,1,0,3,0,0,1,2,1159,1168,
scooby_state_4033b9|42|0 0,4,0,1,0,0,0,1,1,2,0,0,1,1,1124,1135,
scooby_state_4033b9|32|0 1,1,0,2,0,2,1,0,0,1,1,0,2,1,1119,1131,
scooby_state_4033b9|33|0 1,1,0,0,1,0,1,0,0,1,0,0,1,1,1122,1129,
scooby_state_4033b9|25|0 0,1,1,0,0,1,0,0,1,0,0,0,1,0,1100,1105,
scooby_state_4033b9|37|0 1,2,1,1,1,1,1,1,0,2,0,0,0,0,1070,1081,
scooby_state_4033b9|27|0 0,0,0,0,1,2,1,1,1,2,1,2,3,0,1026,1040,
scooby_state_4033b9|34|0 0,0,0,0,0,1,0,2,0,1,0,0,0,0,987,991,
scooby_state_4033b9|21|0 0,0,0,0,1,2,2,1,2,0,0,1,1,0,981,991,
scooby_state_4033b9|35|0 1,0,1,0,0,0,1,2,1,1,1,2,1,2,964,977,
scooby_state_4033b9|4|0 1,1,0,0,0,0,1,0,0,0,1,1,0,1,961,967,
scooby_state_4033b9|20|0 1,1,1,0,0,0,0,0,0,1,1,1,0,1,956,963,
scooby_state_4033a0|3|2 961,0,0,0,0,0,0,0,0,0,0,0,0,0,0,961,
scooby_state_4033b9|29|0 1,3,0,0,2,0,0,0,0,1,1,4,0,0,947,959,
scooby_state_4033b9|19|0 0,0,1,1,1,0,0,0,2,0,0,0,2,1,950,958,
scooby_state_4033a0|2|2 955,0,0,0,0,0,0,0,0,0,1,0,0,0,0,956,
scooby_state_4033b9|30|0 2,1,0,0,0,0,0,1,1,0,1,1,3,0,935,945,
scooby_state_4033a0|48|2 932,0,0,0,0,0,0,0,0,0,0,0,0,0,1,933,
scooby_state_4033a0|52|2 928,0,0,0,0,0,1,0,0,0,0,1,0,0,0,930,
scooby_state_4033a0|23|2 927,0,0,0,0,0,0,0,0,0,1,0,1,0,0,929,
scooby_state_4033a0|26|2 926,1,0,0,0,0,1,0,1,0,0,0,0,0,0,929,
scooby_state_4033a0|61|2 929,0,0,0,0,0,0,0,0,0,0,0,0,0,0,929,
scooby_state_4033a0|30|2 926,0,1,1,0,0,0,1,0,0,0,0,0,0,0,929,
scooby_state_4033a0|39|2 926,1,0,0,1,0,0,0,0,0,0,0,0,0,0,928,
scooby_state_4033a0|49|2 922,0,1,0,1,0,0,0,2,1,0,0,1,0,0,928,
scooby_state_4033a0|47|2 925,0,0,0,0,1,0,1,0,0,0,0,0,0,1,928,
scooby_state_4033a0|37|2 927,0,0,0,0,0,0,0,0,0,0,1,0,0,0,928,
scooby_state_4033a0|53|2 927,0,0,0,0,0,0,0,0,0,0,1,0,0,0,928,
scooby_state_4033a0|42|2 926,0,0,0,0,0,0,1,0,0,1,0,0,0,0,928,
scooby_state_4033a0|11|2 925,0,1,0,0,0,0,1,0,0,0,1,0,0,0,928,
scooby_state_4033a0|51|2 926,0,0,0,0,0,0,0,0,1,0,0,0,0,1,928,
scooby_state_4033a0|20|2 928,0,0,0,0,0,0,0,0,0,0,0,0,0,0,928,
scooby_state_4033a0|31|2 924,0,0,0,0,0,1,0,1,0,0,0,0,0,1,927,
scooby_state_4033a0|25|2 927,0,0,0,0,0,0,0,0,0,0,0,0,0,0,927,
scooby_state_4033a0|38|2 926,0,0,0,0,0,0,0,0,1,0,0,0,0,0,927,
scooby_state_4033a0|10|2 926,0,0,0,1,0,0,0,0,0,0,0,0,0,0,927,
scooby_state_4033a0|45|2 926,0,0,0,0,0,0,0,0,0,0,0,0,0,0,926,
scooby_state_4033a0|16|2 925,0,0,0,0,0,0,0,0,1,0,0,0,0,0,926,
scooby_state_4033a0|22|2 924,0,0,0,0,0,0,0,0,0,0,1,0,1,0,926,
scooby_state_4033a0|32|2 925,0,0,0,0,0,0,1,0,0,0,0,0,0,0,926,
scooby_state_4033a0|44|2 919,2,0,0,0,1,0,1,0,1,1,1,0,0,0,926,
scooby_state_4033a0|50|2 925,0,0,0,0,0,0,0,0,1,0,0,0,0,0,926,
scooby_state_4033a0|9|2 922,0,0,0,0,0,0,0,1,0,1,0,2,0,0,926,
scooby_state_4033a0|43|2 923,1,0,0,0,0,1,0,0,0,0,0,0,0,1,926,
scooby_state_4033a0|12|2 921,1,0,0,1,1,0,1,0,0,0,0,0,0,1,926,
scooby_state_4033a0|17|2 925,0,0,0,0,0,0,0,0,0,0,0,0,0,0,925,
scooby_state_4033a0|41|2 924,1,0,0,0,0,0,0,0,0,0,0,0,0,0,925,
scooby_state_4033a0|19|2 923,0,0,0,0,0,0,0,1,0,0,0,0,0,0,924,
scooby_state_4033a0|46|2 921,1,1,0,0,0,0,0,0,0,0,0,0,1,0,924,
scooby_state_4033a0|24|2 922,0,0,0,1,0,0,0,0,0,0,0,0,0,1,924,
scooby_state_4033a0|62|2 923,0,0,0,0,1,0,0,0,0,0,0,0,0,0,924,
scooby_state_4033a0|54|2 921,1,0,0,1,0,0,1,0,0,0,0,0,0,0,924,
scooby_state_4033a0|63|2 924,0,0,0,0,0,0,0,0,0,0,0,0,0,0,924,
scooby_state_4033a0|40|2 922,0,0,0,0,0,0,0,0,0,0,0,0,0,2,924,
scooby_state_4033a0|5|2 923,0,0,0,0,0,0,1,0,0,0,0,0,0,0,924,
scooby_state_4033a0|8|2 922,0,0,0,0,1,0,0,0,0,0,0,0,0,0,923,
scooby_state_4033a0|29|2 922,0,0,0,0,0,1,0,0,0,0,0,0,0,0,923,
scooby_state_4033a0|21|2 921,0,0,0,1,0,1,0,0,0,0,0,0,0,0,923,
scooby_state_4033a0|36|2 923,0,0,0,0,0,0,0,0,0,0,0,0,0,0,923,
scooby_state_4033a0|60|2 921,0,0,0,1,0,0,0,0,0,0,0,0,0,0,922,
scooby_state_4033a0|33|2 920,0,0,1,0,0,0,0,0,0,0,0,0,0,0,921,
scooby_state_4033a0|57|2 920,0,0,1,0,0,0,0,0,0,0,0,0,0,0,921,
scooby_state_4033a0|15|2 917,2,0,0,0,0,0,1,0,1,0,0,0,0,0,921,
scooby_state_4033a0|27|2 919,1,0,0,0,0,0,0,0,1,0,0,0,0,0,921,
scooby_state_4033a0|55|2 920,0,0,0,0,0,0,0,0,0,1,0,0,0,0,921,
scooby_state_4033a0|35|2 920,0,0,0,0,0,0,0,0,0,0,0,0,0,0,920,
scooby_state_4033a0|56|2 920,0,0,0,0,0,0,0,0,0,0,0,0,0,0,920,
scooby_state_4033a0|6|2 916,0,0,0,0,1,0,1,0,0,0,0,2,0,0,920,
scooby_state_4033a0|13|2 918,1,0,0,0,0,0,0,0,0,0,0,0,0,1,920,
scooby_state_4033a0|18|2 917,0,1,0,0,0,0,0,0,1,0,0,0,0,0,919,
scooby_state_4033a0|34|2 914,0,0,1,0,0,1,0,1,1,1,0,0,0,0,919,
scooby_state_4033a0|28|2 917,0,0,0,0,1,0,0,0,0,0,0,0,0,0,918,
scooby_state_4033a0|58|2 914,0,1,0,0,0,0,2,0,0,0,0,0,0,0,917,
scooby_state_4033a0|14|2 914,1,0,1,0,0,0,0,0,0,0,0,0,0,0,916,
scooby_state_4033a0|59|2 913,0,0,0,0,0,0,0,0,0,0,0,1,0,1,915,
scooby_state_4033a0|7|2 911,3,0,0,0,0,0,0,0,0,0,1,0,0,0,915,
scooby_state_4033a0|4|2 912,0,0,0,1,0,0,0,0,0,0,0,0,0,0,913,
scooby_state_4033b9|14|0 0,1,0,0,1,0,0,1,0,1,0,0,2,2,900,908,
scooby_state_4033b9|24|0 1,2,0,0,1,0,5,1,0,0,0,3,2,1,881,897,
scooby_state_4033b9|28|0 1,1,0,1,1,0,2,0,0,1,0,0,1,0,880,888,
scooby_state_4033b9|26|0 0,0,0,2,2,3,0,2,0,0,1,0,2,0,849,861,
scooby_state_4033b9|0|0 0,1,0,0,0,1,0,0,0,2,1,0,0,1,844,850,
scooby_state_4033b9|16|0 0,2,1,0,0,0,2,0,0,0,0,2,0,0,831,838,
scooby_state_4033b9|9|0 0,1,0,2,0,0,0,0,0,0,0,1,0,0,828,832,
scooby_state_4033b9|11|0 1,0,1,0,1,0,1,0,0,0,1,4,1,0,819,829,
scooby_state_4033b9|17|0 1,2,1,0,0,1,0,2,1,2,0,0,0,1,816,827,
scooby_state_4033b9|23|0 0,1,1,0,0,0,3,0,1,2,1,0,0,0,816,825,
scooby_state_4033b9|22|0 0,0,0,0,1,1,0,1,1,0,0,1,0,0,818,823,
scooby_state_4033b9|3|0 0,0,0,0,1,0,0,0,1,1,0,0,0,0,769,772,
scooby_state_4033b9|6|0 0,0,1,0,0,0,0,1,0,0,0,1,0,2,756,761,
scooby_state_4033b9|10|0 1,1,0,0,0,0,1,0,0,0,0,1,1,1,744,750,
scooby_state_4033b9|15|0 2,1,0,1,2,0,0,2,1,0,0,1,0,1,727,738,
scooby_state_4033b9|8|0 0,0,0,0,1,0,1,1,0,0,0,0,2,0,701,706,
scooby_state_4033b9|12|0 0,2,0,0,0,1,0,1,1,1,0,0,0,0,688,694,
scooby_state_4033b9|18|0 0,0,0,1,1,1,0,0,0,1,1,1,2,0,674,682,
scooby_state_4033b9|13|0 1,0,0,0,0,1,0,0,2,0,0,0,2,0,675,681,
scooby_state_4033b9|7|0 0,1,0,0,0,0,1,1,1,0,0,0,0,1,648,653,
scooby_state_4033b9|1|0 1,2,0,0,0,0,0,0,0,0,0,0,1,1,640,645,
scooby_state_4033b9|2|0 0,1,0,0,0,0,0,0,0,0,0,1,1,1,578,582,
scooby_state_4033b9|5|0 0,1,0,0,1,0,0,1,0,1,0,0,2,1,568,575,
scooby_state_4033a0|1|0 466,0,0,0,0,0,0,0,0,0,0,0,0,0,0,466,
scooby_state_4033b5|9|-1 0,459,1,0,0,0,0,0,0,0,0,0,1,0,0,461,
scooby_state_4033b5|51|-1 0,461,0,0,0,0,0,0,0,0,0,0,0,0,0,461,
scooby_state_4033b5|29|-1 0,458,0,0,0,0,0,0,1,0,0,0,0,0,1,460,
scooby_state_4033b5|40|-1 1,455,0,1,0,0,0,1,0,0,0,0,0,0,0,458,
scooby_state_4033b5|33|-1 0,458,0,0,0,0,0,0,0,0,0,0,0,0,0,458,
scooby_state_4033b5|24|-1 0,458,0,0,0,0,0,0,0,0,0,0,0,0,0,458,
scooby_state_4033b5|47|-1 0,456,0,0,0,0,0,0,0,0,0,1,0,0,0,457,
scooby_state_4033b5|43|-1 1,455,0,0,0,0,0,0,0,0,0,1,0,0,0,457,
scooby_state_4033b5|59|-1 0,456,0,0,0,1,0,0,0,0,0,0,0,0,0,457,
scooby_state_4033b5|18|-1 0,457,0,0,0,0,0,0,0,0,0,0,0,0,0,457,
scooby_state_4033b5|7|-1 1,453,0,0,0,0,1,0,1,0,0,0,0,0,0,456,
scooby_state_4033b5|31|-1 1,453,0,1,0,1,0,0,0,0,0,0,0,0,0,456,
scooby_state_4033b5|63|1 0,455,0,0,1,0,0,0,0,0,0,0,0,0,0,456,
scooby_state_4033b5|4|-1 0,456,0,0,0,0,0,0,0,0,0,0,0,0,0,456,
scooby_state_4033b5|48|-1 0,455,0,0,0,0,0,0,0,0,0,0,0,0,0,455,
scooby_state_4033b5|37|-1 0,453,0,1,0,0,0,0,0,0,0,0,1,0,0,455,
scooby_state_4033b5|21|-1 1,453,0,0,0,0,0,0,0,1,0,0,0,0,0,455,
scooby_state_4033b5|1|-1 0,453,0,0,0,0,0,0,0,0,0,0,0,0,1,454,
scooby_state_4033b5|46|-1 0,453,0,0,0,0,0,0,1,0,0,0,0,0,0,454,
scooby_state_4033b5|49|-1 1,452,0,0,0,0,1,0,0,0,0,0,0,0,0,454,
scooby_state_4033b5|44|-1 0,453,0,0,0,0,0,0,0,0,0,1,0,0,0,454,
scooby_state_4033b5|41|-1 0,454,0,0,0,0,0,0,0,0,0,0,0,0,0,454,
scooby_state_4033b5|10|-1 0,452,0,0,0,1,0,0,0,0,0,0,0,0,0,453,
scooby_state_4033b5|45|-1 0,451,1,0,0,0,0,0,1,0,0,0,0,0,0,453,
scooby_state_4033b5|38|-1 0,452,0,0,0,0,0,0,0,0,0,0,1,0,0,453,
scooby_state_4033b5|11|-1 1,451,0,0,0,0,0,0,0,0,0,0,0,0,0,452,
scooby_state_4033b5|34|-1 0,452,0,0,0,0,0,0,0,0,0,0,0,0,0,452,
scooby_state_4033b5|55|-1 0,452,0,0,0,0,0,0,0,0,0,0,0,0,0,452,
scooby_state_4033b5|35|-1 0,452,0,0,0,0,0,0,0,0,0,0,0,0,0,452,
scooby_state_4033b5|36|-1 0,451,0,0,0,0,0,0,0,0,0,0,0,1,0,452,
scooby_state_4033b5|20|-1 1,450,0,0,0,0,0,0,0,1,0,0,0,0,0,452,
scooby_state_4033b5|26|-1 0,452,0,0,0,0,0,0,0,0,0,0,0,0,0,452,
scooby_state_4033b5|50|-1 0,452,0,0,0,0,0,0,0,0,0,0,0,0,0,452,
scooby_state_4033b5|60|-1 0,452,0,0,0,0,0,0,0,0,0,0,0,0,0,452,
scooby_state_4033b5|30|-1 2,449,0,0,0,0,0,0,0,0,0,0,0,0,0,451,
scooby_state_4033b5|62|-1 0,449,0,1,0,0,0,0,0,0,0,0,1,0,0,451,
scooby_state_4033b5|42|-1 0,450,1,0,0,0,0,0,0,0,0,0,0,0,0,451,
scooby_state_4033b5|19|-1 0,450,0,0,0,0,0,0,0,0,0,0,0,1,0,451,
scooby_state_4033b5|25|-1 0,450,0,0,0,0,0,0,0,0,0,0,0,1,0,451,
scooby_state_4033b5|58|-1 1,448,0,0,0,0,0,0,0,0,0,0,0,0,1,450,
scooby_state_4033b5|22|-1 1,449,0,0,0,0,0,0,0,0,0,0,0,0,0,450,
scooby_state_4033b5|6|-1 0,449,0,0,0,0,0,0,0,1,0,0,0,0,0,450,
scooby_state_4033b5|14|-1 0,449,0,0,1,0,0,0,0,0,0,0,0,0,0,450,
scooby_state_4033b5|53|-1 0,449,0,0,0,0,0,0,0,1,0,0,0,0,0,450,
scooby_state_4033b5|15|-1 0,450,0,0,0,0,0,0,0,0,0,0,0,0,0,450,
scooby_state_4033b5|8|-1 0,447,0,1,0,0,0,0,0,1,0,0,0,0,0,449,
scooby_state_4033b5|54|-1 0,448,0,0,0,0,0,0,0,0,0,0,1,0,0,449,
scooby_state_4033b5|3|-1 0,446,0,0,0,1,0,0,0,1,0,0,0,0,0,448,
scooby_state_4033b5|28|-1 0,447,0,0,0,0,0,0,0,1,0,0,0,0,0,448,
scooby_state_4033b5|16|-1 0,447,0,0,1,0,0,0,0,0,0,0,0,0,0,448,
scooby_state_4033b5|12|-1 1,446,0,0,0,0,0,1,0,0,0,0,0,0,0,448,
scooby_state_4033b5|61|-1 0,446,0,0,1,0,0,0,0,0,0,1,0,0,0,448,
scooby_state_4033b5|56|-1 0,448,0,0,0,0,0,0,0,0,0,0,0,0,0,448,
scooby_state_4033b5|5|-1 1,447,0,0,0,0,0,0,0,0,0,0,0,0,0,448,
scooby_state_4033b5|52|-1 0,445,0,0,0,0,1,0,0,0,0,1,0,0,0,447,
scooby_state_4033b5|13|-1 1,445,0,0,0,0,0,0,0,0,0,0,0,0,0,446,
scooby_state_4033b5|27|-1 0,444,0,0,0,0,0,0,1,0,0,0,0,0,0,445,
scooby_state_4033b5|17|-1 0,443,0,0,0,0,1,0,0,0,0,1,0,0,0,445,
scooby_state_4033b5|57|-1 1,444,0,0,0,0,0,0,0,0,0,0,0,0,0,445,
scooby_state_4033b5|39|-1 1,442,0,1,0,0,0,0,0,0,0,0,0,0,0,444,
scooby_state_4033b5|23|-1 0,442,0,0,0,0,0,0,0,0,0,0,0,0,0,442,
scooby_state_4033b5|32|-1 0,441,0,0,0,0,0,0,0,0,0,0,0,0,0,441,
scooby_state_4033b5|2|-1 1,437,0,0,0,0,0,1,0,0,0,0,0,0,0,439,
scooby_state_4033b5|0|-1 0,437,0,0,0,0,0,0,0,0,0,0,0,0,0,437,
scooby_state_4033b9|26|-8 0,2,0,2,0,2,1,1,0,3,0,2,0,0,192,205,
scooby_state_4033b9|48|-13 0,1,0,0,0,1,1,0,1,0,2,1,0,1,188,196,
scooby_state_4033b9|22|-10 0,1,1,0,1,1,0,0,0,1,0,0,1,3,167,176,
scooby_state_4033b9|4|-5 1,0,0,0,0,0,2,1,0,2,0,0,1,2,167,176,
scooby_state_4033b9|52|-5 0,2,0,0,0,0,0,0,1,0,2,1,1,0,165,172,
scooby_state_4033b9|6|-10 0,0,1,0,0,1,0,1,0,1,0,0,1,0,166,171,
scooby_state_4033b9|38|-5 0,3,1,3,0,1,0,0,0,2,1,0,1,0,153,165,
scooby_state_4033b9|3|-8 0,1,0,0,1,2,0,2,2,0,1,0,0,0,155,164,
scooby_state_4033b9|18|-13 2,1,1,0,0,0,1,1,0,1,0,0,1,1,154,163,
scooby_state_4033b9|52|-3 2,1,1,1,1,1,0,0,1,0,1,0,0,0,154,163,
scooby_state_4033b9|48|-8 2,1,1,3,1,0,1,0,1,0,0,2,2,0,149,163,
scooby_state_4033b9|16|-10 1,1,0,0,0,5,0,2,0,0,0,0,1,1,151,162,
scooby_state_4033b9|23|-8 0,0,0,0,0,1,0,1,2,1,2,0,0,2,152,161,
scooby_state_4033b9|46|-13 1,1,1,0,0,0,1,0,0,0,1,1,4,2,147,159,
scooby_state_4033b9|31|-13 0,1,1,3,0,0,1,0,1,2,0,2,2,3,143,159,
scooby_state_4033b9|46|-8 0,1,2,0,0,0,0,1,0,0,1,0,0,2,151,158,
scooby_state_4033b9|32|-13 0,1,1,0,2,0,1,2,0,1,1,0,2,2,143,156,
scooby_state_4033b9|19|-13 1,0,0,1,0,0,1,0,1,1,0,1,0,0,148,154,
scooby_state_4033b9|40|-5 2,2,2,0,0,2,0,1,0,0,1,0,1,0,142,153,
scooby_state_4033b9|38|-8 0,0,2,0,1,0,2,0,0,2,0,1,1,3,140,152,
scooby_state_4033b9|35|-8 0,0,1,1,0,2,0,0,0,0,0,0,0,0,146,150,
scooby_state_4033b9|37|-13 0,1,0,0,1,1,1,1,0,1,0,1,1,0,142,150,
scooby_state_4033b9|51|-8 1,2,3,1,1,1,0,0,0,1,2,0,2,0,136,150,
scooby_state_4033b9|43|-8 0,1,1,1,0,1,1,1,1,1,0,1,0,1,139,149,
scooby_state_4033b9|29|-13 2,4,4,1,1,0,0,0,0,0,0,4,3,1,128,148,
scooby_state_4033b9|49|-13 0,1,0,1,1,1,1,1,3,0,0,1,1,2,135,148,
scooby_state_4033b9|54|-5 0,1,0,0,0,2,0,0,1,0,0,1,1,1,141,148,
scooby_state_4033b9|53|-10 0,0,0,3,1,1,1,1,0,0,0,0,0,0,140,147,
scooby_state_4033b9|41|-13 1,0,0,0,1,1,1,0,1,1,3,2,4,0,131,146,
scooby_state_4033b9|2|-5 0,2,0,1,1,1,0,1,0,0,0,2,0,0,138,146,
scooby_state_4033b9|44|-5 0,2,0,0,3,0,0,1,0,1,0,0,0,0,139,146,
scooby_state_4033b9|8|-5 0,0,1,0,1,0,1,1,1,0,0,1,0,1,137,144,
scooby_state_4033b9|36|-11 5,0,2,0,0,0,1,0,0,0,0,0,0,1,135,144,
scooby_state_4033b9|27|-5 0,1,0,0,0,0,0,1,0,0,0,0,1,2,138,143,
scooby_state_4033b9|58|-5 0,1,0,0,1,1,0,0,1,0,1,0,0,0,138,143,
scooby_state_4033b9|33|-8 0,0,1,0,1,1,1,0,0,1,0,0,3,0,135,143,
scooby_state_4033b9|45|-10 1,0,0,0,0,0,0,0,1,0,0,0,0,2,138,142,
scooby_state_4033b9|31|-18 0,0,0,2,2,0,1,0,0,0,1,1,1,0,134,142,
scooby_state_4033b9|28|-8 1,2,0,1,0,0,0,1,0,0,0,1,0,2,134,142,
scooby_state_4033b9|51|-5 0,1,1,0,2,0,1,1,0,0,1,1,1,1,132,142,
scooby_state_4033b9|12|-10 0,0,1,0,2,1,0,0,0,0,1,1,3,3,129,141,
scooby_state_4033b9|43|-13 1,1,1,1,0,2,1,1,0,0,0,0,1,0,132,141,
scooby_state_4033b9|52|-8 1,1,3,1,1,1,1,0,0,0,1,1,0,0,129,140,
scooby_state_4033b9|29|-5 1,1,0,0,0,1,0,2,0,0,0,0,0,1,134,140,
scooby_state_4033b9|49|-8 2,1,3,0,0,2,0,1,1,0,2,1,1,0,126,140,
scooby_state_4033b9|17|-5 0,0,1,0,1,1,0,0,0,0,1,0,0,0,136,140,
scooby_state_4033b9|27|-8 1,0,0,1,1,2,1,0,1,0,2,2,0,0,129,140,
scooby_state_4033b9|21|-5 0,2,2,0,1,0,0,1,0,1,1,1,1,0,129,139,
scooby_state_4033b9|9|-10 1,1,1,1,0,1,0,0,0,1,1,0,1,1,129,138,
scooby_state_4033b9|6|-13 1,0,1,1,2,2,5,1,1,1,1,1,0,3,118,138,
scooby_state_4033b9|22|-18 1,1,1,0,0,0,1,0,2,0,0,0,0,1,130,137,
scooby_state_4033b9|35|-5 0,2,1,0,0,0,0,0,0,0,0,1,0,0,133,137,
scooby_state_4033b9|2|-8 0,0,0,1,2,0,1,0,2,1,0,0,3,3,124,137,
scooby_state_4033b9|22|-8 0,0,0,0,2,2,2,2,1,1,1,0,1,0,124,136,
scooby_state_4033b9|47|-8 1,2,1,1,1,3,0,0,1,1,0,0,1,0,124,136,
scooby_state_4033b9|34|-13 2,0,0,2,1,1,0,1,2,1,1,2,5,2,116,136,
scooby_state_4033b9|32|-8 2,1,0,0,2,0,0,1,1,1,0,0,2,1,125,136,
scooby_state_4033b9|53|-8 1,0,1,1,1,0,2,1,0,1,0,0,0,1,126,135,
scooby_state_4033b9|27|-18 2,0,2,0,0,0,2,0,0,0,2,0,1,0,126,135,
scooby_state_4033b9|43|-5 0,0,0,2,1,0,0,1,0,0,1,0,1,3,126,135,
scooby_state_4033b9|36|-5 1,0,0,0,0,1,0,1,0,0,2,2,1,0,127,135,
scooby_state_4033b9|43|-18 2,1,0,0,2,1,1,0,2,0,0,0,0,0,126,135,
scooby_state_4033b9|2|-18 0,1,0,2,1,0,1,1,2,1,1,0,0,3,121,134,
scooby_state_4033b9|19|-11 6,1,1,0,1,1,0,0,1,0,1,1,0,0,121,134,
scooby_state_4033b9|12|-13 1,0,0,2,2,0,0,2,0,2,0,2,2,1,119,133,
scooby_state_4033b9|34|-11 9,0,2,1,1,0,0,0,2,0,0,0,0,0,118,133,
scooby_state_4033b9|6|-3 0,0,1,0,1,0,0,1,1,0,1,2,1,2,122,132,
scooby_state_4033b9|4|-8 1,0,1,3,1,2,0,1,1,1,0,0,2,1,118,132,
scooby_state_4033b9|15|-5 0,2,0,0,1,1,3,0,0,2,1,0,0,0,122,132,
scooby_state_4033b9|9|-8 1,1,0,1,1,0,3,0,0,0,0,1,1,1,121,131,
scooby_state_4033b9|50|-13 0,2,1,1,0,1,1,0,1,2,1,0,1,5,115,131,
scooby_state_4033b9|16|-5 0,1,0,0,1,1,1,0,0,0,0,0,2,1,123,130,
scooby_state_4033b9|33|-5 0,0,0,1,2,1,0,2,0,1,0,0,2,2,119,130,
scooby_state_4033b9|55|-8 0,1,2,1,0,0,1,1,0,1,0,1,0,0,122,130,
scooby_state_4033b9|26|-5 1,1,1,0,1,0,1,0,0,0,0,2,0,0,123,130,
scooby_state_4033b9|22|-13 1,1,0,2,2,0,2,1,1,0,1,2,3,2,111,129,
scooby_state_4033b9|45|-18 0,2,0,0,0,2,0,0,1,1,0,2,0,1,120,129,
scooby_state_4033b9|45|-13 0,1,1,2,1,2,1,3,0,1,0,3,0,1,112,128,
scooby_state_4033b9|25|-8 2,2,1,1,1,1,1,0,1,1,2,0,0,1,114,128,
scooby_state_4033b9|40|-21 0,0,2,0,2,1,0,0,0,1,0,1,2,1,118,128,
scooby_state_4033b9|41|-8 0,2,0,0,0,1,0,0,1,0,0,0,2,1,121,128,
scooby_state_4033b9|47|-15 2,0,1,1,0,0,0,0,0,0,0,0,0,1,123,128,
scooby_state_4033b9|24|-13 2,1,1,1,0,1,0,1,1,2,1,0,0,1,116,128,
scooby_state_4033b9|56|-3 0,1,1,0,1,0,3,0,2,0,1,1,1,0,116,127,
scooby_state_4033b9|30|-8 0,0,1,0,0,0,1,1,3,1,1,0,0,2,117,127,
scooby_state_4033b9|20|-6 1,0,0,1,0,0,2,1,1,2,1,2,0,0,116,127,
scooby_state_4033b9|39|-5 0,0,0,1,1,0,0,0,0,0,0,0,1,0,124,127,
scooby_state_4033b9|24|-8 1,0,1,1,2,0,0,0,0,1,2,0,2,0,117,127,
scooby_state_4033b9|39|-13 2,0,2,2,2,2,0,0,0,1,0,0,0,0,116,127,
scooby_state_4033b9|43|-10 0,3,0,1,0,0,1,1,0,0,1,0,1,2,116,126,
scooby_state_4033b9|53|-5 0,2,0,0,0,0,0,1,0,0,0,0,0,0,123,126,
scooby_state_4033b9|15|-8 0,1,0,0,1,1,0,0,0,0,1,1,1,0,120,126,
scooby_state_4033b9|41|-5 0,4,1,1,3,0,0,0,0,0,2,0,2,0,113,126,
scooby_state_4033b9|4|-13 0,0,1,0,1,1,0,0,0,2,1,1,4,0,114,125,
scooby_state_4033b9|22|-5 0,3,1,1,1,0,0,1,0,0,0,0,1,0,117,125,
scooby_state_4033b9|46|-15 2,0,0,0,1,0,0,0,0,0,0,0,0,2,120,125,
scooby_state_4033b9|10|-13 2,1,1,0,1,0,2,1,1,0,2,0,0,3,111,125,
scooby_state_4033b9|18|-5 2,0,1,0,1,0,0,1,0,0,1,1,0,0,117,124,
scooby_state_4033b9|4|-11 5,0,0,1,0,1,1,0,1,0,0,0,1,1,113,124,
scooby_state_4033b9|22|-21 0,0,0,2,0,2,0,1,2,0,0,1,0,2,114,124,
scooby_state_4033b9|5|-5 0,0,0,0,2,1,1,1,0,0,1,1,0,1,115,123,
scooby_state_4033b9|19|-5 0,0,0,1,0,0,0,0,1,2,0,2,1,1,115,123,
scooby_state_4033b9|5|-8 0,2,0,1,0,0,1,1,1,1,1,1,0,0,114,123,
scooby_state_4033b9|31|-5 1,1,1,0,0,0,2,1,1,0,0,0,0,0,116,123,
scooby_state_4033b9|45|-8 0,0,1,0,0,2,0,0,0,1,0,1,0,1,116,122,
scooby_state_4033b9|26|-11 4,1,1,1,0,1,1,0,0,0,0,0,0,0,113,122,
scooby_state_4033b9|11|-11 5,0,0,0,0,0,0,1,2,1,0,1,0,0,112,122,
scooby_state_4033b9|30|-5 0,1,1,0,0,0,1,1,0,0,0,2,1,1,114,122,
scooby_state_4033b9|0|-8 2,2,1,0,0,0,1,0,0,1,1,0,1,1,112,122,
scooby_state_4033b9|18|-8 1,1,0,0,1,2,1,0,1,0,0,1,2,0,112,122,
scooby_state_4033b9|1|-16 1,0,0,2,1,2,0,0,0,0,0,1,1,0,113,121,
scooby_state_4033b9|10|-5 1,1,0,0,1,0,0,0,0,0,0,2,0,2,114,121,
scooby_state_4033b9|40|-8 0,1,0,0,1,1,0,0,0,1,1,0,3,1,112,121,
scooby_state_4033b9|27|-13 0,1,0,1,1,1,0,1,0,0,0,0,1,2,113,121,
scooby_state_4033b9|14|-5 0,0,0,0,1,1,0,0,1,1,0,0,2,0,114,120,
scooby_state_4033b9|17|-10 0,0,0,0,0,2,0,1,1,0,0,0,0,1,115,120,
scooby_state_4033b9|40|-13 1,1,2,1,0,1,1,1,0,0,1,1,1,0,109,120,
scooby_state_4033b9|11|-5 1,0,1,0,1,0,0,0,0,1,0,0,0,0,116,120,
scooby_state_4033b9|34|-10 3,0,1,0,0,1,2,0,1,1,1,0,2,1,107,120,
scooby_state_4033b9|37|-6 0,0,0,0,1,0,1,1,0,0,1,0,0,1,115,120,
scooby_state_4033b9|3|-13 1,0,0,1,1,0,0,0,1,0,0,1,3,0,111,119,
scooby_state_4033b9|49|-5 1,1,1,2,1,0,0,0,0,0,0,1,2,2,108,119,
scooby_state_4033b9|13|-10 1,2,0,0,1,0,0,2,1,0,0,1,0,2,109,119,
scooby_state_4033b9|0|-10 1,1,0,1,0,2,0,0,0,0,0,0,2,3,109,119,
scooby_state_4033b9|5|-11 1,0,0,1,1,3,0,0,0,2,0,1,0,0,109,118,
scooby_state_4033b9|4|-18 1,2,0,1,2,2,1,1,0,2,0,0,2,0,104,118,
scooby_state_4033b9|0|-13 0,3,0,0,2,0,0,0,1,1,1,1,1,1,107,118,
scooby_state_4033b9|57|-5 0,1,0,0,1,1,2,0,0,1,0,0,1,0,111,118,
scooby_state_4033b9|4|-16 0,1,1,0,2,0,1,0,0,1,0,0,0,2,110,118,
scooby_state_4033b9|23|-5 0,1,0,1,0,1,0,0,0,1,0,0,0,0,114,118,
scooby_state_4033b9|11|-13 1,1,2,2,1,3,0,0,2,0,0,1,3,0,102,118,
scooby_state_4033b9|17|-3 1,1,0,0,1,0,1,1,0,0,0,2,0,1,109,117,
scooby_state_4033b9|36|-3 0,1,2,1,0,1,2,0,0,0,1,0,0,0,109,117,
scooby_state_4033b9|27|-16 1,0,0,0,1,1,2,0,0,0,1,0,0,1,110,117,
scooby_state_4033b9|51|-11 6,0,2,1,1,0,0,0,1,2,1,0,1,1,100,116,
scooby_state_4033b9|37|-3 1,1,1,0,0,0,0,0,0,0,0,3,0,0,110,116,
scooby_state_4033b9|4|-3 0,1,0,2,0,1,0,0,0,1,1,0,0,0,110,116,
scooby_state_4033b9|14|-8 1,0,0,1,3,0,0,1,1,1,1,1,0,1,104,115,
scooby_state_4033b9|47|-16 0,0,0,1,1,0,0,0,0,0,0,1,0,0,112,115,
scooby_state_4033b9|36|-8 0,0,0,0,0,0,0,1,0,0,0,1,4,0,109,115,
scooby_state_4033b9|3|-6 1,2,0,0,3,0,3,2,0,1,1,1,1,0,100,115,
scooby_state_4033b9|20|-8 0,1,0,0,0,0,0,0,0,1,1,0,0,2,110,115,
scooby_state_4033b9|37|-8 0,1,0,2,1,0,2,0,0,0,2,2,2,0,102,114,
scooby_state_4033b9|30|-10 0,0,2,0,1,0,1,1,0,0,1,0,2,1,105,114,
scooby_state_4033b9|49|-3 2,0,0,0,0,1,0,1,1,0,1,1,2,1,104,114,
scooby_state_4033b9|9|-5 0,2,0,1,0,1,0,0,0,0,0,1,0,0,109,114,
scooby_state_4033b9|4|-26 1,1,1,1,2,1,1,3,1,2,0,2,1,1,96,114,
scooby_state_4033b9|3|-10 0,0,1,1,0,0,1,0,0,0,0,0,1,1,109,114,
scooby_state_4033b9|52|-10 0,1,0,1,1,0,1,0,0,0,0,0,1,0,109,114,
scooby_state_4033b9|30|-13 2,1,1,0,1,1,1,0,0,0,0,0,1,1,105,114,
scooby_state_4033b9|32|-18 0,1,2,0,0,1,1,3,0,0,0,0,2,1,103,114,
scooby_state_4033b9|40|-3 0,1,0,1,0,0,0,0,0,1,0,0,2,1,108,114,
scooby_state_4033b9|40|-18 0,1,1,1,0,0,2,2,3,0,0,1,0,0,103,114,
scooby_state_4033b9|21|-8 0,2,0,2,0,1,1,0,1,1,2,0,0,1,103,114,
scooby_state_4033b9|24|-5 0,0,1,1,1,1,0,0,0,0,0,0,1,0,108,113,
scooby_state_4033b9|20|-18 0,1,1,0,0,0,1,1,0,0,1,2,0,0,106,113,
scooby_state_4033b9|44|-3 1,2,1,2,1,1,0,0,0,0,0,2,3,1,99,113,
scooby_state_4033b9|32|-6 0,1,1,0,1,1,0,1,0,0,0,1,1,0,105,112,
scooby_state_4033b9|16|-21 1,1,0,1,0,1,0,0,0,0,0,0,1,0,107,112,
scooby_state_4033b9|2|-3 0,0,0,1,1,0,0,0,0,0,1,1,1,0,107,112,
scooby_state_4033b9|36|-10 0,2,1,2,0,0,0,0,0,0,1,1,0,2,103,112,
scooby_state_4033b9|31|-8 1,1,0,0,1,0,0,1,0,1,0,0,1,2,104,112,
scooby_state_4033b9|41|-16 1,2,1,0,0,0,2,0,0,1,2,2,0,1,100,112,
scooby_state_4033b9|13|-11 5,1,0,1,3,1,1,0,0,0,1,1,0,0,98,112,
scooby_state_4033b9|36|-13 0,0,0,1,0,1,1,0,0,0,0,1,2,1,105,112,
scooby_state_4033b9|5|-10 0,0,0,0,3,1,2,1,0,1,0,1,1,0,102,112,
scooby_state_4033b9|35|-16 1,0,0,0,3,1,0,0,2,1,0,0,0,0,103,111,
scooby_state_4033b9|45|-7 111,0,0,0,0,0,0,0,0,0,0,0,0,0,0,111,
scooby_state_4033b9|55|-3 1,0,0,1,1,0,0,0,0,0,1,0,1,1,105,111,
scooby_state_4033b9|37|-18 1,0,0,1,0,0,3,0,1,0,0,1,1,1,102,111,
scooby_state_4033b9|9|-13 0,0,1,1,1,0,0,0,2,0,0,0,0,0,106,111,
scooby_state_4033b9|15|-13 0,0,1,1,0,0,1,3,2,3,1,0,2,1,96,111,
scooby_state_4033b9|31|-26 3,0,1,1,1,1,1,0,2,0,1,0,2,0,98,111,
scooby_state_4033b9|58|-3 0,0,0,1,0,0,0,0,1,0,1,0,0,0,107,110,
scooby_state_4033b9|38|-16 1,0,2,0,1,1,1,0,2,0,0,2,1,1,98,110,
scooby_state_4033b9|8|-8 0,0,1,1,1,0,0,0,0,1,0,0,0,2,104,110,
scooby_state_4033b9|2|-21 0,0,3,0,0,0,1,2,1,2,1,0,1,1,97,109,
scooby_state_4033b9|48|-10 1,1,0,0,0,0,1,0,1,0,0,0,0,1,104,109,
scooby_state_4033b9|21|-13 0,0,0,1,0,1,2,1,0,0,0,0,1,1,102,109,
scooby_state_4033b9|43|-6 0,1,0,2,0,0,0,0,0,1,0,2,0,0,103,109,
scooby_state_4033b9|48|-3 0,0,0,0,0,0,1,0,0,1,0,0,2,1,103,108,
scooby_state_4033b9|42|-13 0,2,0,0,0,1,1,0,0,0,0,1,1,0,102,108,
scooby_state_4033b9|15|-18 1,1,1,0,1,1,0,1,1,0,1,0,0,1,99,108,
scooby_state_4033b9|42|-5 1,1,0,0,0,0,1,0,0,0,0,0,1,0,104,108,
scooby_state_4033b9|34|-8 1,0,0,0,0,0,1,0,1,0,0,3,0,0,102,108,
scooby_state_4033b9|46|-5 0,0,0,0,0,0,0,0,0,0,0,2,1,0,105,108,
scooby_state_4033b9|6|-5 0,2,0,0,0,2,0,0,1,2,0,1,0,0,100,108,
scooby_state_4033b9|39|-8 1,0,0,0,1,0,1,0,0,0,0,0,2,1,101,107,
scooby_state_4033b9|29|-16 1,2,0,0,1,2,0,0,0,0,0,0,1,1,99,107,
scooby_state_4033b9|14|-13 1,0,1,0,0,0,0,0,0,1,1,1,0,1,101,107,
scooby_state_4033b9|16|-3 0,1,0,0,1,2,1,0,0,0,0,0,0,0,102,107,
scooby_state_4033b9|11|-16 0,0,0,1,1,0,1,0,0,0,0,0,1,0,103,107,
scooby_state_4033b9|46|-12 102,0,0,0,0,0,0,0,0,0,0,0,0,0,5,107,
scooby_state_4033b9|43|-11 1,0,0,1,0,1,0,1,2,0,2,1,0,0,98,107,
scooby_state_4033b9|8|-13 2,0,1,0,3,0,1,0,0,1,0,1,1,1,96,107,
scooby_state_4033b9|45|-16 0,0,1,0,2,0,1,0,0,0,1,0,1,1,99,106,
scooby_state_4033b9|40|-16 1,1,0,0,1,0,1,0,0,0,1,0,0,0,101,106,
scooby_state_4033b9|7|-21 2,2,0,0,0,0,0,2,0,1,1,0,0,0,98,106,
scooby_state_4033b9|5|-13 0,1,0,2,1,0,0,0,0,0,0,0,0,0,102,106,
scooby_state_4033b9|10|-26 2,0,1,1,0,1,0,1,1,1,1,1,1,0,95,106,
scooby_state_4033b9|42|-10 0,1,0,0,1,1,1,0,1,0,0,0,0,0,101,106,
scooby_state_4033c9|0|0 105,1,0,0,0,0,0,0,0,0,0,0,0,0,0,106,
scooby_state_4033b9|13|-5 0,0,0,1,0,1,0,0,1,1,0,0,0,1,100,105,
scooby_state_4033b9|33|-10 1,0,2,1,0,2,0,0,0,1,1,1,0,1,95,105,
scooby_state_4033b9|9|-3 2,0,0,0,0,1,0,0,0,1,0,2,2,0,97,105,
scooby_state_4033b9|37|-10 0,1,1,0,1,1,1,1,0,0,1,1,0,0,97,105,
scooby_state_4033b9|1|-10 0,0,0,0,2,0,0,1,1,0,2,1,1,0,97,105,
scooby_state_4033b9|26|-13 3,0,2,1,0,1,0,0,0,1,1,3,1,0,92,105,
scooby_state_4033b9|59|-3 0,1,0,1,0,0,0,0,0,2,0,0,0,0,100,104,
scooby_state_4033b9|0|-16 2,1,1,0,2,1,0,0,1,1,0,0,0,0,95,104,
scooby_state_4033b9|39|-18 0,1,1,2,0,0,0,0,3,1,1,1,2,1,91,104,
scooby_state_4033b9|55|-7 104,0,0,0,0,0,0,0,0,0,0,0,0,0,0,104,
scooby_state_4033b9|28|-18 0,0,1,0,0,1,1,1,1,0,0,0,0,0,99,104,
scooby_state_4033b9|42|-16 0,0,0,1,0,1,1,0,1,0,0,1,1,1,97,104,
scooby_state_4033b9|7|-13 1,0,0,1,0,0,3,0,1,0,0,1,4,1,92,104,
scooby_state_4033b9|28|-16 0,1,0,1,0,0,0,0,1,0,0,0,0,0,100,103,
scooby_state_4033b9|28|-13 0,0,0,0,1,0,1,1,0,1,0,0,1,1,97,103,
scooby_state_4033b9|14|-18 1,1,0,0,1,1,0,1,2,0,1,0,1,0,94,103,
scooby_state_4033b9|11|-3 0,0,0,0,0,1,0,0,1,0,1,1,0,1,98,103,
scooby_state_4033b9|50|-5 0,2,0,0,0,0,0,0,0,0,0,0,2,1,98,103,
scooby_state_4033b9|33|-13 0,2,1,0,1,1,2,0,0,0,0,1,1,0,94,103,
scooby_state_4033b9|28|-3 0,1,0,0,0,2,1,0,2,0,1,0,2,1,92,102,
scooby_state_4033b9|37|-20 1,2,1,1,0,0,0,1,0,0,0,1,1,2,92,102,
scooby_state_4033b9|48|-6 2,0,1,0,0,0,0,1,0,0,0,0,1,1,96,102,
scooby_state_4033b9|47|-6 1,0,1,0,1,0,0,1,0,0,0,0,1,0,97,102,
scooby_state_4033b9|47|-13 0,1,1,1,0,0,1,0,1,0,0,0,0,1,96,102,
scooby_state_4033b9|26|-26 2,0,0,1,1,1,0,1,1,1,2,2,0,0,90,102,
scooby_state_4033b9|23|-18 0,1,1,0,0,2,0,0,0,0,1,0,0,0,97,102,
scooby_state_4033b9|44|-18 0,0,1,0,2,2,1,0,0,0,0,1,0,0,95,102,
scooby_state_4033b9|30|-3 1,1,0,1,3,0,0,0,0,1,0,0,1,2,92,102,
scooby_state_4033b9|18|-6 0,0,0,0,0,0,0,2,0,1,0,1,0,1,97,102,
scooby_state_4033b9|42|-11 3,0,0,0,0,0,0,1,0,0,0,1,0,0,96,101,
scooby_state_4033b9|6|-8 0,1,0,0,1,0,0,0,0,0,0,1,1,1,96,101,
scooby_state_4033b9|34|-3 1,0,1,0,0,2,0,0,0,0,0,1,0,0,96,101,
scooby_state_4033b9|60|-3 0,1,1,0,1,0,1,1,0,1,1,0,0,0,94,101,
scooby_state_4033b9|7|-10 0,0,1,0,0,1,1,1,2,0,1,0,0,1,93,101,
scooby_state_4033b9|15|-10 1,3,0,0,1,0,1,0,0,0,0,0,2,0,93,101,
scooby_state_4033b9|38|-13 0,1,0,0,1,1,0,0,0,0,1,1,3,0,93,101,
scooby_state_4033b9|3|-5 0,0,0,0,0,0,0,2,0,0,0,2,0,2,95,101,
scooby_state_4033b9|34|-18 0,0,0,2,1,1,0,0,0,1,0,1,0,0,95,101,
scooby_state_4033b9|0|-31 1,0,0,0,0,0,0,0,0,0,1,0,1,0,98,101,
scooby_state_4033b9|9|-21 0,0,0,1,0,0,0,0,0,1,1,0,1,1,96,101,
scooby_state_4033b9|47|-5 0,0,1,1,1,1,0,1,2,0,0,1,1,0,92,101,
scooby_state_4033b9|35|-13 1,2,1,2,1,1,0,0,1,1,2,0,2,3,84,101,
scooby_state_4033b9|16|-8 1,0,2,0,0,0,2,0,0,0,2,0,1,3,90,101,
scooby_state_4033b9|32|-5 0,0,1,0,1,0,0,0,0,1,0,0,1,0,96,100,
scooby_state_4033b9|13|-26 1,0,2,0,0,2,4,4,0,1,1,0,3,0,82,100,
scooby_state_4033b9|49|-4 1,0,0,2,0,0,0,0,0,0,0,1,0,0,96,100,
scooby_state_4033b9|23|-15 2,0,0,1,0,0,0,0,0,0,0,1,0,0,96,100,
scooby_state_4033b9|52|-11 5,0,0,0,1,1,2,1,0,1,0,0,0,0,89,100,
scooby_state_4033b9|45|-5 0,1,1,0,1,1,1,0,1,0,1,0,2,0,91,100,
scooby_state_4033b9|31|-7 100,0,0,0,0,0,0,0,0,0,0,0,0,0,0,100,
scooby_state_4033b9|43|-2 1,1,0,1,1,1,0,1,1,1,0,0,2,1,88,99,
scooby_state_4033b9|17|-7 99,0,0,0,0,0,0,0,0,0,0,0,0,0,0,99,
scooby_state_4033b9|46|-3 1,0,1,1,0,1,0,1,0,0,2,1,0,0,91,99,
scooby_state_4033b9|13|-8 1,1,1,1,0,0,1,1,1,1,0,0,0,0,91,99,
scooby_state_4033b9|17|-21 0,0,0,1,1,0,1,1,0,0,0,0,0,1,93,98,
scooby_state_4033b9|1|-13 0,1,0,0,0,1,0,2,0,2,0,1,0,2,89,98,
scooby_state_4033b9|8|-21 0,2,1,0,1,0,1,0,0,0,1,1,0,0,91,98,
scooby_state_4033b9|2|-24 0,1,0,1,0,0,2,1,0,1,0,2,2,2,86,98,
scooby_state_4033b9|54|-8 1,0,0,0,1,1,0,1,0,0,1,0,0,0,93,98,
scooby_state_4033b9|44|-9 0,1,1,1,0,0,2,1,0,1,1,0,2,0,88,98,
scooby_state_4033b9|29|-10 1,0,0,0,0,1,0,0,0,0,0,1,0,0,95,98,
scooby_state_4033b9|3|-3 1,1,0,0,0,2,0,0,0,0,0,0,0,2,92,98,
scooby_state_4033b9|7|-15 2,1,1,0,0,2,0,0,0,0,0,0,0,1,91,98,
scooby_state_4033b9|26|-3 1,0,2,0,0,0,2,1,1,0,1,0,1,1,88,98,
scooby_state_4033b9|54|-3 1,0,1,0,1,0,0,0,0,0,0,2,0,1,92,98,
scooby_state_4033b9|15|-11 2,0,2,0,0,1,1,0,1,1,0,1,4,1,84,98,
scooby_state_4033b9|11|-8 0,0,1,1,0,0,0,0,0,0,1,0,0,0,94,97,
scooby_state_4033b9|11|-17 0,1,0,0,0,0,1,0,0,2,0,0,1,0,92,97,
scooby_state_4033b9|47|-10 0,1,0,0,2,0,0,0,0,0,1,0,1,4,88,97,
scooby_state_4033b9|55|-2 0,0,0,2,0,1,0,0,0,0,1,0,3,2,88,97,
scooby_state_4033b9|13|-13 0,1,0,2,0,1,0,0,0,1,0,0,1,2,89,97,
scooby_state_4033b9|28|-5 0,1,0,1,0,0,0,0,0,1,0,1,1,0,92,97,
scooby_state_4033b9|44|-8 1,0,0,1,2,0,0,1,0,0,0,0,1,0,91,97,
scooby_state_4033b9|38|-10 0,1,0,0,1,0,0,0,0,1,0,0,0,1,93,97,
scooby_state_4033b9|21|-16 0,1,3,1,0,2,1,0,1,0,1,2,2,0,83,97,
scooby_state_4033b9|34|-26 0,0,0,1,0,1,1,1,0,1,1,0,0,0,91,97,
scooby_state_4033b9|55|-5 0,0,0,0,0,0,0,0,0,0,0,2,0,0,95,97,
scooby_state_4033b9|26|-16 1,1,0,0,1,2,0,0,0,0,0,1,0,0,91,97,
scooby_state_4033b9|34|-5 0,0,0,0,0,0,0,0,0,0,0,0,1,1,95,97,
scooby_state_4033b9|39|-10 0,1,0,0,1,0,1,1,0,0,0,0,0,0,93,97,
scooby_state_4033b9|38|-21 0,0,0,2,3,0,0,0,0,0,0,1,1,0,90,97,
scooby_state_4033b9|24|-3 1,1,0,1,0,0,0,0,0,1,1,0,0,0,92,97,
scooby_state_4033b9|56|-5 1,1,0,2,0,0,0,0,1,0,0,0,0,0,91,96,
scooby_state_4033b9|1|-5 0,0,1,0,0,0,0,0,3,0,0,0,0,0,92,96,
scooby_state_4033b9|13|-7 96,0,0,0,0,0,0,0,0,0,0,0,0,0,0,96,
scooby_state_4033b9|32|-26 0,1,1,0,2,0,0,2,1,0,2,2,2,0,83,96,
scooby_state_4033b9|57|-6 1,0,0,0,0,0,0,0,1,0,3,0,0,0,91,96,
scooby_state_4033b9|40|-10 0,0,1,1,0,0,0,0,2,0,1,1,0,0,90,96,
scooby_state_4033b9|49|-9 0,0,0,0,0,0,0,0,0,0,0,0,3,0,93,96,
scooby_state_4033b9|33|-11 3,0,1,0,1,0,1,0,0,1,0,0,1,0,88,96,
scooby_state_4033b9|11|-10 0,1,0,1,0,1,0,0,2,1,1,1,0,1,86,95,
scooby_state_4033b9|8|-26 1,1,1,2,4,1,0,1,0,1,0,0,1,2,80,95,
scooby_state_4033b9|21|-26 0,3,1,3,3,2,0,0,0,0,0,0,1,0,82,95,
scooby_state_4033b9|14|-3 1,0,0,1,0,0,0,0,0,0,0,0,2,1,90,95,
scooby_state_4033b9|2|-6 1,1,1,0,1,0,0,0,0,0,0,0,1,0,90,95,
scooby_state_4033b9|0|-15 2,0,0,0,0,1,0,0,0,1,0,1,1,0,89,95,
scooby_state_4033b9|3|-18 1,0,0,1,0,3,0,2,1,0,1,1,0,1,84,95,
scooby_state_4033b9|21|-10 0,0,0,2,0,1,0,0,0,0,0,2,0,0,90,95,
scooby_state_4033b9|42|-15 3,0,0,1,0,2,1,0,0,0,1,0,0,0,87,95,
scooby_state_4033b9|6|-31 0,0,1,1,0,1,0,0,0,0,0,0,0,1,91,95,
scooby_state_4033b9|39|-24 0,1,0,1,0,0,1,1,0,0,0,0,1,0,90,95,
scooby_state_4033b9|8|-3 0,0,0,1,0,0,1,0,0,1,1,0,2,0,89,95,
scooby_state_4033b9|44|-11 1,1,0,1,1,0,0,2,0,1,0,1,0,0,87,95,
scooby_state_4033b9|2|-29 0,1,0,2,4,3,0,2,2,1,2,2,1,0,75,95,
scooby_state_4033b9|25|-13 0,1,1,0,0,0,1,1,0,0,0,2,0,0,88,94,
scooby_state_4033b9|24|-10 1,0,1,0,2,1,0,0,0,0,0,0,1,0,88,94,
scooby_state_4033b9|2|-13 2,0,0,1,0,0,0,0,1,0,0,2,0,0,88,94,
scooby_state_4033b9|37|-5 0,2,0,0,0,0,0,1,0,0,0,0,1,0,90,94,
scooby_state_4033b9|48|-5 0,1,1,0,0,0,1,0,1,1,0,0,1,0,88,94,
scooby_state_4033b9|50|-8 0,0,0,1,3,0,0,0,0,2,0,1,1,0,86,94,
scooby_state_4033b9|26|-18 1,1,0,0,2,1,1,0,1,2,0,0,1,0,83,93,
scooby_state_4033b9|31|-3 0,1,0,0,1,0,1,1,0,0,0,2,0,1,86,93,
scooby_state_4033b9|27|-7 93,0,0,0,0,0,0,0,0,0,0,0,0,0,0,93,
scooby_state_4033b9|38|-11 2,1,1,0,0,0,0,0,1,1,0,0,0,1,86,93,
scooby_state_4033b9|25|-16 0,0,2,1,0,1,0,0,0,0,0,2,0,0,87,93,
scooby_state_4033b9|41|-10 0,2,1,1,1,0,0,1,0,2,0,0,0,2,83,93,
scooby_state_4033b9|42|-7 93,0,0,0,0,0,0,0,0,0,0,0,0,0,0,93,
scooby_state_4033b9|42|-8 0,0,1,0,2,0,0,1,0,0,0,0,2,0,86,92,
scooby_state_4033b9|26|-10 1,0,1,0,0,1,1,0,0,0,2,2,0,0,84,92,
scooby_state_4033b9|44|-10 0,0,1,0,0,1,1,0,0,0,1,1,1,1,85,92,
scooby_state_4033b9|22|-26 1,1,0,1,1,0,2,1,1,2,0,1,6,0,75,92,
scooby_state_4033b9|8|-23 1,1,2,3,0,2,1,1,1,1,1,1,5,2,70,92,
scooby_state_4033b9|19|-8 1,0,0,0,0,0,1,0,0,0,1,0,0,1,88,92,
scooby_state_4033b9|43|-16 1,1,0,1,1,1,0,1,0,0,0,2,1,0,83,92,
scooby_state_4033b9|41|-11 2,0,2,0,0,1,0,0,1,0,0,0,0,0,86,92,
scooby_state_4033b9|28|-10 1,0,1,0,0,0,0,2,0,0,3,0,1,4,80,92,
scooby_state_4033b9|9|-18 0,0,1,0,0,0,1,2,0,0,2,1,0,0,84,91,
scooby_state_4033b9|21|-21 2,1,1,0,0,1,0,1,0,0,0,0,0,2,83,91,
scooby_state_4033b9|32|-15 4,0,1,0,1,0,0,0,0,0,0,0,0,1,84,91,
scooby_state_4033b9|7|-16 0,1,0,1,0,1,1,0,1,1,2,0,1,0,82,91,
scooby_state_4033b9|29|-12 82,1,0,0,0,0,0,0,0,0,0,0,0,0,8,91,
scooby_state_4033b9|27|-15 5,0,0,0,0,0,0,0,0,0,0,0,1,0,85,91,
scooby_state_4033b9|28|-26 0,1,1,0,2,0,1,0,1,0,0,1,2,0,82,91,
scooby_state_4033b9|38|-3 0,2,0,1,0,0,0,0,1,0,0,0,0,0,87,91,
scooby_state_4033b9|48|-11 3,0,1,0,0,1,0,0,0,0,0,1,3,0,82,91,
scooby_state_4033b9|6|-7 91,0,0,0,0,0,0,0,0,0,0,0,0,0,0,91,
scooby_state_4033b9|20|-13 1,2,2,0,1,1,0,3,0,1,1,1,1,0,76,90,
scooby_state_4033b9|13|-18 0,0,1,2,0,0,3,1,0,0,0,2,1,0,80,90,
scooby_state_4033b9|51|-10 0,1,1,0,0,0,2,0,1,0,0,0,1,0,84,90,
scooby_state_4033b9|11|-6 0,2,0,0,0,0,1,1,1,0,1,1,0,1,82,90,
scooby_state_4033b9|16|-18 0,0,0,1,0,2,1,1,0,0,1,0,0,0,84,90,
scooby_state_4033b9|53|-2 2,1,0,0,0,0,0,0,1,0,0,0,2,0,84,90,
scooby_state_4033b9|10|-3 0,0,1,1,1,0,0,0,0,0,1,0,0,0,85,89,
scooby_state_4033b9|20|-21 0,0,1,0,1,0,0,0,0,0,0,0,0,0,87,89,
scooby_state_4033b9|2|-10 0,1,1,0,0,1,1,0,0,2,0,0,0,1,82,89,
scooby_state_4033b9|22|-16 0,0,0,1,0,0,1,0,1,0,0,0,0,0,86,89,
scooby_state_4033b9|12|-11 3,0,1,0,1,0,0,0,0,0,0,0,1,0,83,89,
scooby_state_4033b9|28|-2 0,0,0,0,0,0,0,1,0,1,0,0,0,0,87,89,
scooby_state_4033b9|26|-21 0,1,1,0,1,0,1,0,0,2,1,0,0,0,82,89,
scooby_state_4033b9|4|-24 0,1,1,1,0,1,0,1,0,0,0,1,3,1,79,89,
scooby_state_4033b9|6|-11 3,2,1,0,1,0,0,0,1,1,0,0,0,0,80,89,
scooby_state_4033b9|25|-18 1,0,0,0,1,1,0,0,0,0,0,0,0,0,86,89,
scooby_state_4033b9|10|-21 1,0,0,0,0,1,0,1,0,0,1,0,0,0,85,89,
scooby_state_4033b9|0|-26 0,0,0,0,0,0,0,0,0,0,1,1,0,1,86,89,
scooby_state_4033b9|28|-23 0,2,2,1,1,1,1,0,1,0,1,3,3,0,73,89,
scooby_state_4033c9|10|0 89,0,0,0,0,0,0,0,0,0,0,0,0,0,0,89,
scooby_state_4033b9|14|-11 2,0,0,2,0,0,0,0,1,1,0,0,1,0,81,88,
scooby_state_4033b9|29|-3 1,1,1,0,0,1,0,2,0,1,0,0,1,0,80,88,
scooby_state_4033b9|4|-7 88,0,0,0,0,0,0,0,0,0,0,0,0,0,0,88,
scooby_state_4033b9|15|-16 1,0,3,1,0,1,0,0,0,1,0,1,1,0,79,88,
scooby_state_4033b9|56|-6 1,1,1,0,1,0,0,0,0,1,0,0,1,3,79,88,
scooby_state_4033b9|54|-7 88,0,0,0,0,0,0,0,0,0,0,0,0,0,0,88,
scooby_state_4033b9|27|-10 1,1,0,0,1,0,0,0,0,0,0,1,0,1,83,88,
scooby_state_4033b9|21|-7 88,0,0,0,0,0,0,0,0,0,0,0,0,0,0,88,
scooby_state_4033b9|23|-13 2,0,0,1,0,0,1,0,1,1,0,1,0,1,80,88,
scooby_state_4033b9|28|-7 88,0,0,0,0,0,0,0,0,0,0,0,0,0,0,88,
scooby_state_4033b9|49|-11 0,0,0,1,0,0,0,0,1,0,0,1,0,0,85,88,
scooby_state_4033b9|51|-6 0,0,0,0,0,1,1,0,1,1,1,2,0,0,81,88,
scooby_state_4033b9|56|-7 88,0,0,0,0,0,0,0,0,0,0,0,0,0,0,88,
scooby_state_4033b9|0|-5 0,0,0,0,0,1,1,0,0,1,1,1,0,0,83,88,
scooby_state_4033b9|59|-2 1,2,0,0,0,2,1,0,0,2,1,4,1,0,73,87,
scooby_state_4033b9|53|-9 2,1,0,2,3,0,0,0,0,0,0,1,2,1,75,87,
scooby_state_4033b9|8|-15 4,0,0,0,0,1,0,0,1,0,0,1,0,0,80,87,
scooby_state_4033b9|22|-7 87,0,0,0,0,0,0,0,0,0,0,0,0,0,0,87,
scooby_state_4033b9|7|-8 0,1,0,1,2,0,3,1,0,0,0,0,0,0,79,87,
scooby_state_4033b9|40|-9 0,0,0,1,1,0,0,1,1,1,1,1,0,1,79,87,
scooby_state_4033b9|33|-2 0,1,0,0,0,0,0,1,2,0,0,0,0,0,83,87,
scooby_state_4033b9|17|-8 0,2,0,0,1,0,0,0,0,0,0,0,1,0,83,87,
scooby_state_4033b9|13|-21 0,0,1,0,0,4,0,0,0,0,0,0,0,1,81,87,
scooby_state_4033b9|46|-10 1,0,2,0,1,0,0,0,0,0,1,2,1,0,79,87,
scooby_state_4033b9|32|-3 1,0,0,1,2,0,0,0,1,0,0,0,0,0,81,86,
scooby_state_4033b9|19|-3 0,0,0,0,0,0,1,1,0,1,0,0,0,0,83,86,
scooby_state_4033b9|16|-13 0,0,2,1,2,0,0,0,0,0,0,0,1,1,79,86,
scooby_state_4033b9|15|-15 3,0,2,0,0,1,0,0,0,0,1,0,2,1,76,86,
scooby_state_4033b9|40|-6 1,0,0,0,0,0,0,0,0,0,0,2,2,2,79,86,
scooby_state_4033b9|42|-3 1,1,0,0,2,0,1,2,0,1,0,0,1,0,77,86,
scooby_state_4033b9|4|-10 0,0,2,0,0,1,0,0,1,0,0,0,0,0,82,86,
scooby_state_4033b9|19|-16 2,0,0,0,0,1,1,1,0,2,0,0,1,1,77,86,
scooby_state_4033b9|0|-20 0,0,2,0,0,1,1,0,1,1,0,1,0,1,78,86,
scooby_state_4033b9|10|-10 0,0,1,1,0,0,0,0,1,0,2,1,1,2,77,86,
scooby_state_4033b9|19|-18 0,0,0,1,0,1,3,0,0,1,1,0,0,1,78,86,
scooby_state_4033b9|29|-18 1,1,0,1,0,0,2,0,0,2,0,0,3,2,74,86,
scooby_state_4033b9|37|-15 1,0,0,0,0,1,1,0,0,0,1,0,1,0,80,85,
scooby_state_4033b9|5|-16 0,0,0,0,0,1,1,1,0,2,0,1,2,2,75,85,
scooby_state_4033b9|31|-2 0,0,1,1,0,0,1,0,0,0,1,0,1,1,79,85,
scooby_state_4033b9|9|-23 1,1,0,0,1,4,1,0,0,1,1,3,2,0,70,85,
scooby_state_4033b9|38|-7 85,0,0,0,0,0,0,0,0,0,0,0,0,0,0,85,
scooby_state_4033b9|33|-18 0,1,1,1,0,0,0,0,1,1,2,0,1,1,76,85,
scooby_state_4033b9|37|-16 1,0,1,0,1,0,0,1,0,1,0,1,0,0,78,84,
scooby_state_4033b9|45|-11 1,1,0,0,1,0,1,0,2,1,1,0,0,2,74,84,
scooby_state_4033b9|26|-12 78,1,0,0,0,0,0,0,1,0,0,0,0,0,4,84,
scooby_state_4033b9|20|-11 3,0,0,0,0,0,2,0,0,0,1,1,1,0,76,84,
scooby_state_4033b9|6|-16 1,4,1,0,2,0,1,0,1,0,0,0,1,1,72,84,
scooby_state_4033b9|14|-10 1,1,0,2,0,0,0,0,0,0,1,2,0,1,76,84,
scooby_state_4033b9|3|-11 2,0,1,2,0,0,1,1,0,0,0,1,0,0,76,84,
scooby_state_4033b9|4|-36 2,0,8,1,0,0,0,1,4,1,1,1,1,0,64,84,
scooby_state_4033b9|12|-8 0,0,0,0,1,0,0,0,0,1,2,1,0,0,79,84,
scooby_state_4033b9|14|-2 0,1,1,0,1,1,0,0,0,0,1,3,1,1,74,84,
scooby_state_4033b9|31|-6 1,2,0,0,0,0,0,1,1,0,0,0,1,0,78,84,
scooby_state_4033b9|12|-5 0,1,1,0,0,0,1,0,1,0,0,0,0,0,80,84,
scooby_state_4033b9|36|-7 84,0,0,0,0,0,0,0,0,0,0,0,0,0,0,84,
scooby_state_4033b9|11|-15 1,0,0,0,0,1,2,0,0,2,0,1,0,0,77,84,
scooby_state_4033b9|17|-31 0,0,0,0,0,1,0,0,0,0,0,0,0,0,83,84,
scooby_state_4033b9|32|-21 0,0,1,1,0,0,1,1,0,0,1,0,0,1,78,84,
scooby_state_4033b9|18|-4 0,0,0,1,0,2,2,1,0,1,0,1,0,1,75,84,
scooby_state_4033b9|39|-21 0,0,0,0,0,0,0,0,1,0,0,0,1,0,81,83,
scooby_state_4033b9|58|-2 0,0,0,0,1,0,1,0,0,0,0,1,0,0,80,83,
scooby_state_4033b9|26|-34 0,0,0,1,0,0,0,1,1,0,0,1,0,1,78,83,
scooby_state_4033b9|38|-2 1,1,1,0,0,0,0,1,1,0,1,0,0,0,77,83,
scooby_state_4033b9|17|-18 1,0,1,0,0,0,2,0,1,0,1,0,0,0,77,83,
scooby_state_4033b9|36|-18 0,2,1,1,0,0,0,2,1,0,1,1,1,0,73,83,
scooby_state_4033b9|32|-14 1,3,0,2,0,0,0,0,0,0,0,0,0,0,77,83,
scooby_state_4033b9|33|-16 1,0,2,3,0,0,0,0,0,1,1,0,1,1,73,83,
scooby_state_4033b9|2|-9 0,0,0,2,0,1,1,3,0,0,0,3,0,1,71,82,
scooby_state_4033b9|25|-11 2,0,2,0,0,1,0,0,0,1,0,1,0,1,74,82,
scooby_state_4033b9|34|-6 1,1,0,0,0,0,0,0,0,0,0,1,2,0,77,82,
scooby_state_4033b9|53|-3 0,1,0,0,0,0,1,1,0,1,0,2,0,0,76,82,
scooby_state_4033b9|4|-2 1,0,0,0,2,0,0,1,1,0,0,0,0,0,77,82,
scooby_state_4033b9|39|-6 1,0,0,0,1,0,1,1,0,1,1,2,0,1,73,82,
scooby_state_4033b9|7|-20 0,0,1,0,1,0,0,0,2,0,1,0,1,2,74,82,
scooby_state_4033b9|36|-15 2,0,1,0,1,0,2,0,0,0,0,0,0,0,76,82,
scooby_state_4033b9|3|-39 0,0,0,2,0,0,0,0,0,0,0,0,0,0,80,82,
scooby_state_4033b9|21|-3 0,0,0,0,1,0,1,0,1,1,0,0,0,1,77,82,
scooby_state_4033b9|25|-15 1,0,1,0,0,0,0,0,0,0,0,0,0,0,80,82,
scooby_state_4033b9|36|-21 2,1,0,0,0,0,1,0,1,0,1,0,1,0,75,82,
scooby_state_4033b9|2|-16 2,1,2,1,1,1,0,1,1,0,1,0,2,0,69,82,
scooby_state_4033b9|3|-7 82,0,0,0,0,0,0,0,0,0,0,0,0,0,0,82,
scooby_state_4033b9|0|-23 2,2,1,0,0,2,2,0,1,1,1,1,3,1,65,82,
scooby_state_4033b9|11|-26 1,0,0,2,1,0,0,0,1,0,0,1,0,0,76,82,
scooby_state_4033b9|15|-31 0,0,0,1,0,2,0,0,0,0,0,0,0,0,79,82,
scooby_state_4033b9|17|-15 1,0,0,1,0,2,0,1,1,0,0,1,0,0,74,81,
scooby_state_4033b9|57|-3 0,0,0,0,0,2,0,1,0,1,0,2,0,0,75,81,
scooby_state_4033b9|15|-3 0,0,0,1,0,3,0,0,0,1,2,0,0,0,74,81,
scooby_state_4033b9|8|-18 0,0,1,0,1,1,0,1,0,0,0,0,1,0,76,81,
scooby_state_4033b9|32|-4 0,1,0,1,0,0,0,0,0,0,1,1,4,1,72,81,
scooby_state_4033b9|28|-9 0,2,0,0,1,0,1,0,1,0,1,0,2,0,73,81,
scooby_state_4033b9|5|-18 2,0,0,1,0,0,0,1,1,0,1,1,0,1,73,81,
scooby_state_4033b9|1|-8 0,0,0,1,1,0,1,0,0,2,1,0,0,0,75,81,
scooby_state_4033b9|12|-15 2,1,0,0,0,0,0,0,0,0,0,0,0,0,78,81,
scooby_state_4033b9|0|-39 0,0,0,0,0,0,0,0,0,0,0,0,0,0,81,81,
scooby_state_4033b9|31|-10 0,0,0,1,1,0,0,1,0,0,0,1,2,1,74,81,
scooby_state_4033b9|8|-52 80,0,1,0,0,0,0,0,0,0,0,0,0,0,0,81,
scooby_state_4033b9|20|-1 0,0,1,2,0,1,0,0,0,0,0,1,0,0,76,81,
scooby_state_4033b9|25|-31 0,0,1,4,0,1,0,0,0,0,0,0,0,0,75,81,
scooby_state_4033b9|37|-26 0,0,0,2,0,1,1,0,1,3,0,2,1,0,70,81,
scooby_state_4033b9|17|-6 0,1,0,0,0,1,0,0,0,0,0,0,0,0,79,81,
scooby_state_4033b9|35|-15 4,0,0,1,0,0,1,0,0,0,2,0,1,0,71,80,
scooby_state_4033b9|44|-16 1,1,1,0,0,0,0,2,1,0,0,1,1,1,71,80,
scooby_state_4033b9|32|-11 0,0,0,2,0,0,0,0,0,0,1,0,0,1,76,80,
scooby_state_4033c9|1|0 79,0,1,0,0,0,0,0,0,0,0,0,0,0,0,80,
scooby_state_4033b9|16|-11 2,1,0,2,2,1,0,0,0,0,0,1,0,0,71,80,
scooby_state_4033b9|43|-7 80,0,0,0,0,0,0,0,0,0,0,0,0,0,0,80,
scooby_state_4033b9|0|-3 0,1,0,1,0,1,1,0,0,0,0,0,1,2,73,80,
scooby_state_4033b9|7|-14 2,1,0,0,0,3,0,1,0,0,0,1,0,1,71,80,
scooby_state_4033b9|45|-3 0,0,2,0,1,1,0,0,0,0,0,1,0,1,74,80,
scooby_state_4033b9|42|-21 0,1,0,1,0,0,0,1,0,0,1,2,0,1,73,80,
scooby_state_4033b9|24|-2 0,1,2,1,2,0,0,0,0,2,1,0,0,0,71,80,
scooby_state_4033b9|23|-16 0,1,0,0,0,0,0,0,0,1,1,1,1,0,75,80,
scooby_state_4033b9|30|-16 1,0,1,0,0,1,0,1,1,2,0,0,1,0,72,80,
scooby_state_4033b9|21|-18 1,0,0,0,0,1,0,0,0,1,0,0,2,0,75,80,
scooby_state_4033b9|17|-13 2,0,0,0,2,1,0,1,2,0,0,0,3,1,68,80,
scooby_state_4033b9|29|-8 0,0,0,2,0,0,0,0,1,0,0,0,1,1,74,79,
scooby_state_4033b9|35|-10 0,0,0,0,0,0,0,0,1,0,0,1,1,1,75,79,
scooby_state_4033b9|28|-31 0,0,0,1,0,0,0,0,0,0,0,0,0,0,78,79,
scooby_state_4033b9|1|-3 0,0,0,1,0,0,0,1,0,0,0,0,1,1,75,79,
scooby_state_4033c9|61|0 79,0,0,0,0,0,0,0,0,0,0,0,0,0,0,79,
scooby_state_4033b9|7|-3 1,0,0,2,1,0,2,0,0,1,1,0,1,0,70,79,
scooby_state_4033b9|3|-26 0,1,1,0,0,2,0,0,0,1,0,1,2,0,71,79,
scooby_state_4033b9|21|-6 1,0,0,1,1,0,1,0,0,2,0,1,0,0,72,79,
scooby_state_4033b9|29|-11 6,0,0,0,0,0,2,0,0,1,0,1,1,0,68,79,
scooby_state_4033b9|17|-11 3,0,0,0,2,0,1,1,0,0,0,2,0,0,70,79,
scooby_state_4033b9|41|-9 0,0,0,3,1,0,0,1,0,0,1,0,1,1,71,79,
scooby_state_4033b9|20|-36 0,0,3,0,0,0,1,0,0,0,0,1,0,2,71,78,
scooby_state_4033b9|23|-10 0,0,0,0,0,1,0,1,0,1,0,0,1,1,73,78,
scooby_state_4033b9|9|-26 0,1,1,0,0,1,0,0,2,0,1,0,0,1,71,78,
scooby_state_4033b9|51|-3 0,0,0,0,0,1,0,0,0,1,0,0,1,1,74,78,
scooby_state_4033b9|3|-23 2,0,0,2,1,0,1,0,0,1,1,0,2,0,68,78,
scooby_state_4033b9|4|-9 1,1,0,0,1,1,1,0,0,0,0,0,0,1,72,78,
scooby_state_4033b9|12|-7 77,0,0,0,0,0,1,0,0,0,0,0,0,0,0,78,
scooby_state_4033b9|49|-2 0,2,0,0,2,1,2,0,2,0,1,0,0,0,68,78,
scooby_state_4033b9|20|-15 0,0,1,0,0,0,0,1,1,1,0,0,0,0,74,78,
scooby_state_4033b9|13|-3 1,0,1,0,1,0,0,1,0,0,0,0,0,0,74,78,
scooby_state_4033b9|20|-20 0,0,1,0,0,0,0,0,1,0,1,0,0,0,75,78,
scooby_state_4033b9|24|-18 2,1,0,1,2,0,0,2,0,0,0,0,1,0,69,78,
scooby_state_4033b9|22|-2 2,0,0,0,0,0,0,1,1,0,0,0,5,0,69,78,
scooby_state_4033b9|41|-3 1,0,1,0,2,0,1,0,0,0,0,0,0,0,73,78,
scooby_state_4033b9|31|-15 4,0,1,0,0,1,0,0,0,0,0,1,3,2,66,78,
scooby_state_4033b9|29|-7 78,0,0,0,0,0,0,0,0,0,0,0,0,0,0,78,
scooby_state_4033b9|32|-31 0,0,0,2,1,0,0,0,0,0,0,0,0,1,73,77,
scooby_state_4033b9|6|-18 0,1,1,1,0,0,0,0,0,1,0,0,0,0,73,77,
scooby_state_4033b9|24|-21 0,0,0,1,0,0,0,1,0,1,0,0,1,0,73,77,
scooby_state_4033b9|25|-21 0,0,2,0,0,0,0,0,0,0,0,0,0,2,73,77,
scooby_state_4033b9|14|-16 0,0,1,0,0,0,1,0,1,0,0,0,0,1,73,77,
scooby_state_4033b9|24|-26 0,1,2,1,1,0,1,2,0,0,0,1,1,1,66,77,
scooby_state_4033b9|27|-28 2,1,1,1,1,1,2,3,0,1,1,0,0,1,62,77,
scooby_state_4033c9|2|0 76,0,0,0,1,0,0,0,0,0,0,0,0,0,0,77,
scooby_state_4033b9|20|-3 1,0,0,3,0,2,0,0,0,0,1,0,0,1,69,77,
scooby_state_4033b9|35|-6 0,0,0,2,0,0,1,0,0,0,1,0,1,0,72,77,
scooby_state_4033b9|16|-2 2,0,2,1,1,0,0,0,0,0,0,0,2,1,68,77,
scooby_state_4033b9|16|-44 0,0,6,1,0,1,1,0,3,0,1,0,0,0,64,77,
scooby_state_4033c9|12|0 71,0,6,0,0,0,0,0,0,0,0,0,0,0,0,77,
scooby_state_4033b9|8|-11 1,0,0,0,0,0,0,0,2,0,1,0,0,1,72,77,
scooby_state_4033b9|45|-4 1,1,1,0,0,0,0,1,0,1,1,1,0,0,70,77,
scooby_state_4033b9|5|-29 2,1,1,1,0,0,0,1,1,1,0,0,0,0,69,77,
scooby_state_4033b9|31|-1 0,1,1,0,0,0,1,0,0,0,0,0,0,0,74,77,
scooby_state_4033b9|22|-15 0,1,0,0,0,0,0,0,0,0,0,1,0,0,75,77,
scooby_state_4033b9|18|-11 3,1,1,0,0,0,1,0,0,1,0,0,1,1,68,77,
scooby_state_4033b9|16|-23 0,1,1,1,1,0,0,1,0,0,0,0,1,0,71,77,
scooby_state_4033b9|32|-16 1,1,0,2,0,0,1,1,0,0,0,0,0,1,69,76,
scooby_state_4033b9|21|-11 1,0,2,2,0,0,0,0,1,1,0,0,0,0,69,76,
scooby_state_4033b9|52|-4 0,0,0,1,1,0,0,0,0,1,0,1,0,0,72,76,
scooby_state_4033b9|44|-13 0,1,0,1,0,0,1,1,0,1,0,3,0,0,68,76,
scooby_state_4033b9|7|-36 0,0,3,0,1,0,1,0,1,0,0,0,0,0,70,76,
scooby_state_4033b9|50|-2 1,0,1,0,1,1,0,1,0,1,0,0,0,2,68,76,
scooby_state_4033c9|7|0 72,0,4,0,0,0,0,0,0,0,0,0,0,0,0,76,
scooby_state_4033b9|58|-1 0,1,1,0,2,1,1,0,1,2,0,0,1,0,66,76,
scooby_state_4033b9|22|-6 0,0,1,1,1,0,0,0,0,1,0,1,0,0,70,75,
scooby_state_4033b9|40|-12 69,0,0,0,0,0,0,0,1,0,0,0,0,0,5,75,
scooby_state_4033b9|22|-34 0,0,0,0,3,1,1,1,0,0,0,0,2,0,67,75,
scooby_state_4033b9|36|-23 1,0,1,0,1,3,1,1,1,0,3,1,2,0,60,75,
scooby_state_4033b9|29|-6 0,2,1,1,0,0,0,0,1,0,0,0,1,0,69,75,
scooby_state_4033b9|50|-7 75,0,0,0,0,0,0,0,0,0,0,0,0,0,0,75,
scooby_state_4033b9|18|-16 0,0,0,0,0,0,2,2,0,0,0,0,1,1,69,75,
scooby_state_4033b9|41|-6 0,0,1,0,1,0,1,1,0,1,1,1,0,2,66,75,
scooby_state_4033b9|35|-11 3,1,1,0,2,1,2,0,0,0,0,0,0,1,64,75,
scooby_state_4033b9|25|-5 0,1,1,0,0,1,0,0,0,0,0,0,2,0,70,75,
scooby_state_4033b9|34|-15 1,0,0,0,0,2,1,0,0,1,0,0,0,0,70,75,
scooby_state_4033b9|6|-26 2,0,1,0,0,1,1,2,2,0,0,0,1,0,65,75,
scooby_state_4033c9|48|0 75,0,0,0,0,0,0,0,0,0,0,0,0,0,0,75,
scooby_state_4033b9|20|-16 0,0,0,0,2,0,0,1,0,0,1,1,1,0,69,75,
scooby_state_4033b9|47|-7 75,0,0,0,0,0,0,0,0,0,0,0,0,0,0,75,
scooby_state_4033b9|22|-37 0,0,0,0,0,1,0,0,0,0,1,0,1,0,72,75,
scooby_state_4033b9|20|-9 2,0,0,2,2,2,2,0,0,0,1,1,0,0,62,74,
scooby_state_4033b9|27|-34 0,1,1,1,0,0,0,0,0,1,1,0,0,0,69,74,
scooby_state_4033b9|9|-31 0,0,0,0,0,0,0,0,0,0,0,0,0,0,74,74,
scooby_state_4033b9|61|-2 0,0,0,1,0,2,0,0,0,0,0,1,0,1,69,74,
scooby_state_4033b9|1|-18 0,1,1,0,1,1,0,2,1,1,0,0,0,0,66,74,
scooby_state_4033b9|52|-1 1,0,1,0,0,0,1,0,0,0,1,1,0,1,68,74,
scooby_state_4033b9|23|-3 0,1,0,1,0,1,0,0,0,0,0,0,1,0,70,74,
scooby_state_4033b9|4|-28 0,0,1,0,0,0,0,0,1,0,1,0,1,0,70,74,
scooby_state_4033b9|44|-7 74,0,0,0,0,0,0,0,0,0,0,0,0,0,0,74,
scooby_state_4033c9|58|0 74,0,0,0,0,0,0,0,0,0,0,0,0,0,0,74,
scooby_state_4033b9|4|-39 0,0,0,1,0,0,0,0,0,0,0,0,0,0,73,74,
scooby_state_4033b9|13|-24 1,3,1,0,0,1,1,0,0,2,0,0,0,0,65,74,
scooby_state_4033b9|3|-16 1,0,0,0,0,0,1,0,0,0,0,1,0,0,71,74,
scooby_state_4033b9|11|-28 1,1,0,0,0,2,0,1,0,1,0,0,0,0,68,74,
scooby_state_4033b9|1|-21 0,0,0,1,0,0,2,0,2,0,0,0,0,0,69,74,
scooby_state_4033b9|35|-3 1,0,0,0,2,0,1,1,1,0,1,0,0,1,65,73,
scooby_state_4033c9|38|0 71,0,2,0,0,0,0,0,0,0,0,0,0,0,0,73,
scooby_state_4033b9|31|-16 1,0,0,0,0,0,2,0,2,0,0,0,0,0,68,73,
scooby_state_4033b9|11|-29 1,5,0,0,1,0,1,0,0,3,0,0,0,1,61,73,
scooby_state_4033b9|28|-15 0,0,0,1,0,0,0,0,0,0,1,0,0,0,71,73,
scooby_state_4033b9|33|-21 0,0,0,0,0,1,0,0,2,0,1,0,1,0,68,73,
scooby_state_4033b9|20|-5 0,0,0,0,0,0,1,1,0,0,1,0,2,0,68,73,
scooby_state_4033b9|27|-6 0,2,2,0,0,0,0,1,0,0,0,0,0,0,68,73,
scooby_state_4033b9|0|-18 1,2,0,0,1,0,0,0,0,1,1,0,0,0,67,73,
scooby_state_4033b9|18|-21 0,0,0,0,3,1,1,2,0,0,0,2,0,0,64,73,
scooby_state_4033b9|7|-18 0,0,0,0,0,1,0,0,0,1,0,0,2,1,68,73,
scooby_state_4033b9|2|-31 0,0,0,0,0,0,0,0,0,0,0,1,1,0,71,73,
scooby_state_4033b9|16|-4 0,0,1,1,1,0,1,0,1,1,1,0,2,2,62,73,
scooby_state_4033b9|16|-34 0,0,1,0,0,2,0,2,0,1,0,0,0,0,67,73,
scooby_state_4033b9|34|-7 73,0,0,0,0,0,0,0,0,0,0,0,0,0,0,73,
scooby_state_4033b9|9|-39 0,0,0,0,0,0,0,0,0,0,0,0,0,0,73,73,
scooby_state_4033b9|19|-2 0,0,0,2,0,0,0,1,1,2,0,0,1,0,65,72,
scooby_state_4033b9|2|-39 0,0,0,0,0,0,0,0,0,0,0,0,0,0,72,72,
scooby_state_4033c9|19|0 71,0,1,0,0,0,0,0,0,0,0,0,0,0,0,72,
scooby_state_4033b9|16|-7 72,0,0,0,0,0,0,0,0,0,0,0,0,0,0,72,
scooby_state_4033b9|23|-11 1,0,0,0,1,0,0,0,0,0,0,1,0,0,69,72,
scooby_state_4033b9|8|-7 71,0,0,0,0,0,0,0,1,0,0,0,0,0,0,72,
scooby_state_4033b9|23|-6 0,2,0,1,2,1,1,0,1,0,1,0,2,0,61,72,
scooby_state_4033b9|31|-23 1,1,2,0,0,0,0,2,1,0,0,1,3,1,60,72,
scooby_state_4033b9|5|-3 0,0,1,0,0,1,0,1,1,0,2,0,1,0,65,72,
scooby_state_4033b9|27|-9 0,0,0,0,0,2,0,0,1,0,0,0,1,1,67,72,
scooby_state_4033b9|35|-21 0,0,1,1,0,1,0,0,1,0,1,0,0,0,67,72,
scooby_state_4033b9|3|-2 0,0,0,0,0,1,0,0,0,1,0,1,1,0,68,72,
scooby_state_4033b9|27|-29 2,2,1,0,1,1,1,1,2,1,0,2,0,0,58,72,
scooby_state_4033b9|24|-11 0,1,0,1,1,0,1,0,0,1,1,0,0,0,66,72,
scooby_state_4033b9|49|-6 0,0,0,3,1,0,1,1,0,1,1,1,0,1,62,72,
scooby_state_4033b9|9|-2 0,1,0,0,1,0,1,1,0,1,0,0,0,0,67,72,
scooby_state_4033b9|44|-2 1,0,0,1,0,1,0,0,0,0,0,2,1,0,66,72,
scooby_state_4033b9|34|-16 0,1,0,0,0,0,0,0,0,0,0,1,1,0,69,72,
scooby_state_4033b9|15|-26 0,0,0,0,0,0,0,1,2,0,0,2,0,0,67,72,
scooby_state_4033b9|2|-11 1,1,0,1,0,1,0,0,0,0,1,0,2,0,65,72,
scooby_state_4033b9|29|-2 0,1,2,1,0,0,0,1,1,1,0,1,1,0,63,72,
scooby_state_4033b9|18|-10 1,0,1,0,0,0,0,0,0,1,0,1,0,1,67,72,
scooby_state_4033c9|54|0 71,0,1,0,0,0,0,0,0,0,0,0,0,0,0,72,
scooby_state_4033b9|40|-20 0,1,0,1,1,0,0,0,1,1,0,1,0,0,65,71,
scooby_state_4033b9|32|-9 0,0,1,0,1,0,0,1,0,0,0,0,0,0,68,71,
scooby_state_4033b9|8|-10 0,0,1,0,0,0,0,0,0,0,1,1,0,0,68,71,
scooby_state_4033c9|34|0 71,0,0,0,0,0,0,0,0,0,0,0,0,0,0,71,
scooby_state_4033b9|41|-2 0,2,1,0,0,1,2,2,1,0,2,0,0,1,59,71,
scooby_state_4033b9|10|-8 1,0,0,0,0,0,0,0,1,0,0,1,1,0,67,71,
scooby_state_4033b9|30|-15 1,0,0,0,0,1,1,1,1,0,1,0,1,1,63,71,
scooby_state_4033b9|7|-26 0,0,0,1,1,2,0,1,0,0,1,0,1,1,63,71,
scooby_state_4033b9|50|-3 0,0,0,0,0,0,0,1,2,0,0,0,0,0,68,71,
scooby_state_4033b9|54|-9 0,4,0,0,0,0,1,3,0,1,0,0,0,0,62,71,
scooby_state_4033b9|25|-12 68,0,0,0,0,1,0,0,0,0,0,0,0,1,1,71,
scooby_state_4033b9|12|-16 0,1,1,0,0,1,1,0,1,0,0,0,0,0,66,71,
scooby_state_4033b9|5|-31 0,0,0,1,0,1,0,0,1,0,0,0,0,0,68,71,
scooby_state_4033b9|0|-22 0,1,0,0,1,2,0,1,0,0,0,1,0,0,65,71,
scooby_state_4033b9|34|-21 2,0,1,0,0,0,1,1,1,0,1,0,1,0,63,71,
scooby_state_4033b9|24|-16 0,1,1,0,1,1,0,0,1,0,0,1,1,0,64,71,
scooby_state_4033b9|15|-7 71,0,0,0,0,0,0,0,0,0,0,0,0,0,0,71,
scooby_state_4033b9|35|-26 1,0,0,1,1,1,0,2,1,0,2,0,0,0,62,71,
scooby_state_4033b9|31|-31 0,0,0,0,0,0,0,0,1,1,0,0,1,1,67,71,
scooby_state_4033b9|23|-21 0,0,0,2,0,1,1,1,1,0,0,0,0,0,65,71,
scooby_state_4033b9|16|-26 0,0,0,0,1,2,0,1,0,0,0,1,0,1,64,70,
scooby_state_4033b9|47|-2 1,0,0,1,1,0,1,1,0,0,0,0,0,0,65,70,
scooby_state_4033b9|14|-17 0,0,0,0,1,0,0,2,0,1,0,0,1,0,65,70,
scooby_state_4033b9|15|-21 0,1,1,0,0,2,1,0,0,1,0,0,0,0,64,70,
scooby_state_4033b9|34|-14 0,3,0,1,0,0,0,0,1,2,0,0,0,1,62,70,
scooby_state_4033b9|13|-23 0,1,1,0,0,0,2,0,0,0,1,0,1,0,64,70,
scooby_state_4033b9|14|-4 1,2,0,1,0,2,1,1,2,1,0,0,1,0,58,70,
scooby_state_4033b9|10|-12 69,0,0,0,0,0,0,0,0,0,0,0,0,0,1,70,
scooby_state_4033b9|12|-21 0,0,0,1,0,1,0,1,2,1,0,0,0,0,64,70,
scooby_state_4033b9|9|-14 2,1,0,1,2,0,1,1,2,1,1,0,1,1,56,70,
scooby_state_4033b9|0|-33 0,2,0,2,0,2,1,2,2,2,1,1,1,1,53,70,
scooby_state_4033b9|29|-21 0,0,2,1,0,0,1,0,1,0,0,2,0,1,62,70,
scooby_state_4033b9|7|-9 0,2,2,0,0,0,1,2,0,1,0,0,2,0,60,70,
scooby_state_4033b9|20|-17 0,0,0,0,2,1,2,0,1,1,0,2,1,1,59,70,
scooby_state_4033b9|5|-9 1,0,1,1,0,4,2,0,1,2,0,1,0,2,54,69,
scooby_state_4033b9|24|-12 67,0,0,0,0,0,0,0,0,0,0,0,0,0,2,69,
scooby_state_4033b9|50|-11 3,0,0,1,0,0,0,0,0,1,0,1,0,0,63,69,
scooby_state_4033b9|8|-16 0,3,0,0,1,1,0,0,0,1,0,1,3,1,58,69,
scooby_state_4033b9|52|-7 69,0,0,0,0,0,0,0,0,0,0,0,0,0,0,69,
scooby_state_4033b9|16|-16 1,0,0,0,0,0,1,0,0,0,0,2,1,0,64,69,
scooby_state_4033b9|30|-2 0,0,0,0,2,0,0,0,0,1,0,0,0,0,66,69,
scooby_state_4033b9|24|-9 0,1,2,1,0,0,2,0,2,0,0,1,1,0,59,69,
scooby_state_4033b9|35|-18 0,1,1,0,1,0,1,0,2,1,0,0,1,0,61,69,
scooby_state_4033b9|31|-21 0,1,0,0,1,0,0,0,1,1,0,1,0,0,64,69,
scooby_state_4033b9|19|-6 1,1,2,0,0,0,0,1,0,1,0,0,0,1,62,69,
scooby_state_4033b9|47|-3 0,1,0,1,1,0,0,0,0,0,0,1,0,0,65,69,
scooby_state_4033b9|35|-7 69,0,0,0,0,0,0,0,0,0,0,0,0,0,0,69,
scooby_state_4033b9|9|-16 1,3,0,0,0,1,0,0,2,0,0,0,1,0,61,69,
scooby_state_4033b9|37|-7 69,0,0,0,0,0,0,0,0,0,0,0,0,0,0,69,
scooby_state_4033b9|0|-6 0,0,1,0,0,0,0,1,0,0,0,0,0,0,67,69,
scooby_state_4033b9|53|-7 69,0,0,0,0,0,0,0,0,0,0,0,0,0,0,69,
scooby_state_4033b9|5|-6 2,1,1,3,1,0,0,1,0,2,1,0,0,1,55,68,
scooby_state_4033b9|48|-7 68,0,0,0,0,0,0,0,0,0,0,0,0,0,0,68,
scooby_state_4033b9|32|-10 0,0,2,0,1,0,1,0,1,0,0,0,0,0,63,68,
scooby_state_4033b9|40|-15 2,1,0,0,0,0,0,0,1,0,0,0,0,0,64,68,
scooby_state_4033b9|9|-11 2,1,0,1,1,0,0,0,0,1,0,0,1,0,61,68,
scooby_state_4033b9|38|-15 1,0,0,0,1,0,0,0,0,0,0,0,0,0,66,68,
scooby_state_4033b9|2|-20 1,0,0,2,0,0,1,0,0,1,0,0,1,2,60,68,
scooby_state_4033b9|4|-29 0,0,0,0,0,2,1,3,1,0,0,1,1,3,56,68,
scooby_state_4033b9|44|-19 0,0,0,0,2,0,1,0,1,0,1,2,1,0,60,68,
scooby_state_4033b9|7|-11 2,1,0,0,0,1,0,1,0,0,0,2,0,0,61,68,
scooby_state_4033b9|1|-15 1,0,1,0,0,0,0,1,0,0,1,0,0,0,64,68,
scooby_state_4033b9|33|-3 1,0,1,1,0,1,0,1,0,0,0,0,0,0,63,68,
scooby_state_4033b9|33|-26 2,0,4,0,0,1,1,0,0,0,0,0,0,0,60,68,
scooby_state_4033c9|30|0 68,0,0,0,0,0,0,0,0,0,0,0,0,0,0,68,
scooby_state_4033b9|10|-18 2,1,0,0,0,1,0,0,0,0,0,0,0,1,63,68,
scooby_state_4033b9|18|-15 4,0,2,0,0,0,0,0,0,1,0,1,0,1,59,68,
scooby_state_4033b9|14|-21 2,1,0,0,1,0,0,0,0,0,1,0,0,0,63,68,
scooby_state_4033b9|18|-3 0,0,0,0,0,0,0,1,0,0,0,0,0,0,67,68,
scooby_state_4033b9|36|-16 0,0,0,0,1,0,1,0,0,1,1,1,1,2,60,68,
scooby_state_4033b9|33|-15 1,0,0,0,0,1,0,0,0,0,0,0,0,0,66,68,
scooby_state_4033b9|17|-20 0,0,0,0,0,0,2,0,1,2,0,0,1,1,60,67,
scooby_state_4033c9|52|0 65,0,2,0,0,0,0,0,0,0,0,0,0,0,0,67,
scooby_state_4033b9|13|-16 1,0,1,0,1,1,0,1,0,0,0,0,0,0,62,67,
scooby_state_4033b9|11|-23 0,0,1,0,0,3,2,2,0,2,1,0,1,1,54,67,
scooby_state_4033b9|7|-31 0,0,1,2,0,0,0,0,0,0,0,0,0,1,63,67,
scooby_state_4033b9|37|-12 60,0,0,0,0,0,0,0,0,0,1,0,0,0,6,67,
scooby_state_4033b9|26|-2 0,2,3,2,0,0,0,1,0,1,0,0,1,0,57,67,
scooby_state_4033b9|28|-11 5,0,0,0,0,1,1,0,2,1,0,0,0,0,57,67,
scooby_state_4033b9|5|-2 0,0,0,0,0,1,0,0,0,0,0,0,3,1,62,67,
scooby_state_4033b9|0|-21 0,0,1,0,0,1,1,0,0,0,0,0,0,0,64,67,
scooby_state_4033b9|22|-3 1,0,0,0,0,0,1,0,1,0,0,1,1,0,62,67,
scooby_state_4033b9|7|-29 0,0,0,0,0,0,0,0,2,0,1,0,0,1,63,67,
scooby_state_4033b9|46|-11 1,1,0,0,0,0,1,2,0,0,0,1,0,0,61,67,
scooby_state_4033b9|47|-12 64,0,0,0,0,0,0,0,0,0,0,0,0,0,3,67,
scooby_state_4033b9|19|-34 0,1,1,0,1,0,1,0,1,0,0,0,0,0,62,67,
scooby_state_4033b9|5|-23 0,1,1,1,1,1,1,1,0,1,0,0,1,0,58,67,
scooby_state_4033b9|27|-2 1,0,0,2,0,0,2,1,1,1,0,0,2,1,56,67,
scooby_state_4033b9|10|-15 2,1,0,0,0,0,0,0,2,0,0,0,0,0,62,67,
scooby_state_4033b9|53|-6 1,0,0,0,1,0,0,0,1,1,1,0,0,0,62,67,
scooby_state_4033b9|21|-12 61,0,0,1,0,0,0,0,0,0,0,0,0,0,5,67,
scooby_state_4033b9|49|-12 52,2,0,0,0,0,0,1,0,0,1,0,0,0,11,67,
scooby_state_4033c9|51|0 67,0,0,0,0,0,0,0,0,0,0,0,0,0,0,67,
scooby_state_4033b9|9|-52 67,0,0,0,0,0,0,0,0,0,0,0,0,0,0,67,
scooby_state_4033b9|16|-6 0,1,0,1,0,0,2,0,1,0,2,2,1,1,55,66,
scooby_state_4033b9|39|-16 0,0,2,0,0,0,0,1,0,0,0,0,0,0,63,66,
scooby_state_4033b9|25|-2 0,1,0,1,1,2,0,1,0,0,0,2,0,0,58,66,
scooby_state_4033b9|27|-21 0,0,0,0,0,0,0,0,0,0,0,0,0,0,66,66,
scooby_state_4033b9|29|-26 0,0,0,1,0,0,1,0,1,1,0,0,1,1,60,66,
scooby_state_4033b9|24|-23 0,0,1,2,1,1,1,0,0,0,1,1,3,1,54,66,
scooby_state_4033b9|22|5 2,0,1,0,0,0,1,0,1,0,0,1,1,3,56,66,
scooby_state_4033b9|22|-11 0,0,0,0,0,1,2,0,0,1,1,0,1,1,59,66,
scooby_state_4033b9|31|-22 0,2,1,2,0,0,1,0,0,0,0,0,3,1,56,66,
scooby_state_4033b9|44|-12 64,0,0,0,0,0,0,0,0,0,0,0,0,0,2,66,
scooby_state_4033b9|26|-7 66,0,0,0,0,0,0,0,0,0,0,0,0,0,0,66,
scooby_state_4033b9|13|-29 0,2,0,1,1,2,1,1,3,1,1,0,2,0,51,66,
scooby_state_4033b9|26|-14 1,1,0,0,0,1,0,3,0,1,1,0,0,1,57,66,
scooby_state_4033b9|44|-6 0,0,0,0,0,1,0,0,0,0,0,0,1,0,64,66,
scooby_state_4033b9|10|-45 3,1,0,0,3,1,4,1,0,1,2,4,1,1,44,66,
scooby_state_4033b9|0|-2 1,2,1,0,1,0,1,2,0,0,0,0,1,1,56,66,
scooby_state_4033b9|0|-4 0,0,0,0,1,1,1,0,0,0,1,1,0,0,61,66,
scooby_state_4033b9|27|-11 4,0,0,0,0,0,0,1,0,0,0,0,0,0,61,66,
scooby_state_4033b9|54|-4 1,0,0,1,0,0,0,0,0,0,0,0,1,0,63,66,
scooby_state_4033b9|15|-2 0,0,0,0,0,0,1,0,0,1,1,1,1,0,61,66,
scooby_state_4033b9|41|-21 0,0,0,1,0,0,0,0,0,1,0,1,0,0,63,66,
scooby_state_4033b9|30|-7 66,0,0,0,0,0,0,0,0,0,0,0,0,0,0,66,
scooby_state_4033b9|39|-12 60,0,0,0,0,1,0,0,0,0,0,0,0,0,5,66,
scooby_state_4033b9|15|-47 0,0,0,0,0,0,0,0,0,0,0,0,4,1,61,66,
scooby_state_4033b9|19|-21 0,0,0,1,0,0,2,1,0,2,2,0,0,0,58,66,
scooby_state_4033b9|17|-23 2,1,0,1,0,1,1,0,2,0,0,0,1,0,56,65,
scooby_state_4033b9|23|-2 1,0,0,0,0,0,0,1,0,0,0,0,0,0,63,65,
scooby_state_4033b9|20|-7 65,0,0,0,0,0,0,0,0,0,0,0,0,0,0,65,
scooby_state_4033b9|6|-20 0,0,0,0,1,2,0,0,0,1,1,0,2,3,55,65,
scooby_state_4033b9|23|-4 0,0,0,0,0,1,1,0,1,0,0,1,2,1,58,65,
scooby_state_4033b9|4|-49 1,0,0,0,0,0,0,0,0,0,0,0,0,0,64,65,
scooby_state_4033b9|42|-18 1,0,0,0,0,0,1,0,0,2,0,2,0,0,59,65,
scooby_state_4033b9|17|-39 0,0,0,0,1,0,0,0,0,0,0,0,0,0,64,65,
scooby_state_4033b9|24|-34 0,0,0,1,1,0,0,1,0,0,0,0,0,0,62,65,
scooby_state_4033b9|13|-6 0,0,0,1,1,0,0,1,2,0,1,0,0,0,59,65,
scooby_state_4033b9|20|-10 1,1,0,0,0,0,0,0,0,1,0,0,1,1,60,65,
scooby_state_4033b9|47|-11 4,0,0,2,1,1,0,0,1,0,0,0,0,0,56,65,
scooby_state_4033b9|39|-3 0,0,0,0,0,0,0,1,0,0,1,0,1,0,62,65,
scooby_state_4033c9|47|0 65,0,0,0,0,0,0,0,0,0,0,0,0,0,0,65,
scooby_state_4033b9|37|-4 0,0,2,0,0,1,0,0,1,0,0,1,0,0,60,65,
scooby_state_4033b9|5|-26 0,0,2,0,0,2,3,2,1,1,1,1,1,1,50,65,
scooby_state_4033b9|28|-20 1,0,1,0,0,0,0,0,0,0,0,0,1,0,62,65,
scooby_state_4033b9|45|-15 1,0,0,0,0,0,0,1,0,0,0,1,0,0,62,65,
scooby_state_4033b9|41|-14 2,1,1,1,1,3,0,0,0,2,3,0,0,1,50,65,
scooby_state_4033b9|19|-7 65,0,0,0,0,0,0,0,0,0,0,0,0,0,0,65,
scooby_state_4033b9|24|-29 2,0,1,1,1,0,1,1,0,0,0,0,0,3,55,65,
scooby_state_4033b9|56|-2 1,0,2,0,0,0,1,1,0,1,0,2,0,0,57,65,
scooby_state_4033c9|55|0 63,0,2,0,0,0,0,0,0,0,0,0,0,0,0,65,
scooby_state_4033b9|18|-2 2,0,0,1,0,0,0,1,0,0,0,0,0,0,60,64,
scooby_state_4033b9|21|-24 0,1,0,0,1,0,0,0,0,0,0,1,1,1,59,64,
scooby_state_4033b9|3|-28 0,1,0,0,0,0,0,1,0,0,0,0,1,0,61,64,
scooby_state_4033b9|35|-23 0,1,0,0,3,2,0,0,0,2,2,2,3,0,49,64,
scooby_state_4033b9|4|-20 0,0,1,2,1,0,2,0,2,0,1,0,2,0,53,64,
scooby_state_4033b9|32|-20 0,0,1,1,0,2,0,0,5,0,0,0,2,0,53,64,
scooby_state_4033b9|4|-21 1,1,0,1,0,0,0,0,0,2,0,0,1,0,58,64,
scooby_state_4033b9|40|-14 1,0,0,0,0,0,0,1,0,1,0,0,0,0,61,64,
scooby_state_4033b9|21|-31 0,0,0,0,0,0,0,0,0,0,0,0,0,0,64,64,
scooby_state_4033b9|19|-10 0,1,1,0,1,0,1,1,2,1,0,0,0,0,56,64,
scooby_state_4033b9|17|-29 0,0,0,0,2,1,1,0,0,0,1,1,0,0,58,64,
scooby_state_4033b9|33|-22 0,1,0,0,0,1,0,0,1,2,1,0,1,0,57,64,
scooby_state_4033b9|6|-24 0,1,1,0,0,1,2,0,1,2,0,1,1,2,52,64,
scooby_state_4033b9|9|-6 1,0,0,0,0,1,0,1,1,0,3,0,0,0,57,64,
scooby_state_4033b9|20|-26 0,1,0,0,0,0,0,0,0,0,0,0,2,0,61,64,
scooby_state_4033b9|11|-44 0,0,1,2,0,0,0,1,0,0,1,1,1,1,56,64,
scooby_state_4033b9|41|-18 0,0,0,0,0,0,2,0,0,1,0,1,2,0,58,64,
scooby_state_4033b9|43|-15 2,0,0,0,0,0,0,1,0,0,0,0,0,0,61,64,
scooby_state_4033b9|33|-4 1,1,0,0,0,0,0,1,1,0,0,0,3,0,57,64,
scooby_state_4033b9|34|-29 0,0,0,1,0,0,2,1,1,0,0,1,0,1,57,64,
scooby_state_4033b9|11|-7 64,0,0,0,0,0,0,0,0,0,0,0,0,0,0,64,
scooby_state_4033b9|3|-15 0,0,0,0,0,1,0,0,0,0,0,0,0,1,61,63,
scooby_state_4033b9|39|-7 63,0,0,0,0,0,0,0,0,0,0,0,0,0,0,63,
scooby_state_4033b9|2|-26 0,1,0,1,1,2,0,1,0,2,0,1,2,0,52,63,
scooby_state_4033b9|48|-12 63,0,0,0,0,0,0,0,0,0,0,0,0,0,0,63,
scooby_state_4033b9|36|-26 1,0,0,0,0,2,1,1,0,2,0,0,0,0,56,63,
scooby_state_4033b9|12|-26 1,1,0,0,0,0,1,0,0,0,0,0,0,1,59,63,
scooby_state_4033b9|36|-6 0,0,0,1,1,0,0,1,0,0,0,0,0,0,60,63,
scooby_state_4033b9|3|-31 0,0,0,1,0,0,0,0,0,0,0,0,0,0,62,63,
scooby_state_4033b9|11|-37 0,0,2,0,0,0,0,0,0,0,0,0,1,0,60,63,
scooby_state_4033b9|23|-25 1,2,1,0,0,2,4,0,2,0,0,1,0,0,50,63,
scooby_state_4033b9|22|-31 0,0,0,0,0,1,0,1,0,0,0,0,0,0,61,63,
scooby_state_4033b9|1|-2 0,0,1,0,0,1,0,0,0,0,1,2,0,1,57,63,
[...]
scooby_state_4033c9|33|3 3,0,0,0,0,0,0,0,0,0,0,0,0,0,0,3,
scooby_state_4033c9|50|4 0,0,2,0,0,0,0,0,0,0,0,0,0,0,1,3,
scooby_state_4033b9|14|7 0,0,0,0,0,0,1,0,0,0,0,0,0,0,2,3,
scooby_state_4033c5|41|-1 0,3,0,0,0,0,0,0,0,0,0,0,0,0,0,3,
scooby_state_4033f0|51|1 3,0,0,0,0,0,0,0,0,0,0,0,0,0,0,3,
scooby_state_4033b9|61|33 0,1,0,0,0,0,0,0,0,0,0,0,0,0,2,3,
scooby_state_4033b9|40|14 0,0,0,0,0,0,0,0,0,0,0,0,0,1,2,3,
scooby_state_4033b9|35|17 0,0,0,0,0,0,0,0,0,0,0,0,0,0,3,3,
scooby_state_4033b9|37|32 0,0,0,0,0,0,0,0,0,0,0,0,0,0,3,3,
scooby_state_4033b9|36|28 0,0,0,0,0,0,0,0,0,0,0,0,0,0,3,3,
scooby_state_4033b9|24|22 1,0,0,0,0,0,0,0,0,0,0,0,0,0,2,3,
scooby_state_4033c5|21|-1 0,3,0,0,0,0,0,0,0,0,0,0,0,0,0,3,
scooby_state_4033f0|24|1 3,0,0,0,0,0,0,0,0,0,0,0,0,0,0,3,
scooby_state_4033b9|58|14 0,0,0,0,0,0,0,0,0,0,0,0,0,0,3,3,
scooby_state_4033b9|27|17 0,0,0,0,0,0,0,0,0,0,0,0,0,0,3,3,
scooby_state_4033b9|42|14 0,0,0,0,0,0,0,0,0,0,0,0,0,0,3,3,
scooby_state_4033c5|3|-1 0,3,0,0,0,0,0,0,0,0,0,0,0,0,0,3,
scooby_state_4033b9|53|48 0,1,0,0,0,0,1,0,0,0,0,0,0,0,1,3,
scooby_state_4033b5|2|2 0,3,0,0,0,0,0,0,0,0,0,0,0,0,0,3,
scooby_state_4033b9|51|33 0,0,0,0,0,0,0,0,0,0,0,1,0,0,2,3,
scooby_state_4033c9|29|3 3,0,0,0,0,0,0,0,0,0,0,0,0,0,0,3,
scooby_state_4033b9|48|48 0,0,0,0,0,0,0,0,0,0,0,0,0,0,3,3,
scooby_state_4033b9|28|16 0,0,0,1,0,0,0,0,0,0,0,0,0,0,2,3,
scooby_state_4033f0|33|-1 3,0,0,0,0,0,0,0,0,0,0,0,0,0,0,3,
scooby_state_4033b9|52|14 0,0,0,0,0,0,0,0,0,0,0,0,0,0,3,3,
scooby_state_4033b9|18|-40 0,0,1,0,0,1,0,0,0,0,1,0,0,0,0,3,
scooby_state_4033c9|7|3 3,0,0,0,0,0,0,0,0,0,0,0,0,0,0,3,
scooby_state_4033b9|57|28 0,0,0,0,0,0,0,0,0,0,0,0,0,0,3,3,
scooby_state_4033b9|45|43 0,0,0,0,0,0,0,0,0,1,0,0,0,0,2,3,
scooby_state_4033c5|31|-1 0,3,0,0,0,0,0,0,0,0,0,0,0,0,0,3,
scooby_state_4033c9|6|3 3,0,0,0,0,0,0,0,0,0,0,0,0,0,0,3,
scooby_state_4033b9|53|20 0,0,0,0,0,0,0,0,0,0,0,0,0,0,3,3,
scooby_state_4033b9|56|38 0,0,0,0,0,0,0,0,0,0,0,0,0,0,2,2,
scooby_state_4033b9|49|22 1,0,0,0,0,0,0,0,0,0,0,0,0,0,1,2,
scooby_state_4033b9|44|30 0,0,0,0,0,0,0,0,0,0,0,0,0,0,2,2,
scooby_state_4033d5|58|-1 0,2,0,0,0,0,0,0,0,0,0,0,0,0,0,2,
scooby_state_4033c5|43|-1 0,2,0,0,0,0,0,0,0,0,0,0,0,0,0,2,
scooby_state_4033d5|2|2 0,2,0,0,0,0,0,0,0,0,0,0,0,0,0,2,
scooby_state_4033c9|63|3 2,0,0,0,0,0,0,0,0,0,0,0,0,0,0,2,
scooby_state_4033b9|40|35 0,0,0,0,0,0,0,0,0,0,0,0,0,0,2,2,
scooby_state_4033c5|29|-1 0,2,0,0,0,0,0,0,0,0,0,0,0,0,0,2,
scooby_state_4033c9|48|3 2,0,0,0,0,0,0,0,0,0,0,0,0,0,0,2,
scooby_state_4033c9|22|3 2,0,0,0,0,0,0,0,0,0,0,0,0,0,0,2,
scooby_state_4033c9|56|3 2,0,0,0,0,0,0,0,0,0,0,0,0,0,0,2,
scooby_state_4033b9|37|14 0,0,0,0,0,0,0,0,0,0,0,0,0,0,2,2,
scooby_state_4033b9|49|38 0,0,0,0,0,0,0,0,0,1,0,0,0,0,1,2,
scooby_state_4033c9|29|4 0,0,2,0,0,0,0,0,0,0,0,0,0,0,0,2,
scooby_state_4033c9|14|4 0,0,2,0,0,0,0,0,0,0,0,0,0,0,0,2,
scooby_state_4033b9|44|35 0,0,2,0,0,0,0,0,0,0,0,0,0,0,0,2,
scooby_state_4033c5|24|-1 0,2,0,0,0,0,0,0,0,0,0,0,0,0,0,2,
scooby_state_4033b9|61|35 0,0,1,0,0,0,0,0,0,0,0,0,0,0,1,2,
scooby_state_4033b9|42|9 0,0,0,0,0,0,0,0,1,0,0,0,0,0,1,2,
scooby_state_4033c9|47|3 2,0,0,0,0,0,0,0,0,0,0,0,0,0,0,2,
scooby_state_4033c5|59|-1 0,2,0,0,0,0,0,0,0,0,0,0,0,0,0,2,
scooby_state_4033c9|10|3 2,0,0,0,0,0,0,0,0,0,0,0,0,0,0,2,
scooby_state_4033c9|41|3 2,0,0,0,0,0,0,0,0,0,0,0,0,0,0,2,
scooby_state_4033b9|26|14 0,0,0,0,0,0,0,0,0,0,0,0,0,0,2,2,
scooby_state_4033c9|62|3 2,0,0,0,0,0,0,0,0,0,0,0,0,0,0,2,
scooby_state_4033b9|18|17 0,0,0,0,0,0,1,0,0,0,0,0,0,0,1,2,
scooby_state_4033b9|36|35 0,0,1,0,0,0,0,0,0,0,0,0,0,0,1,2,
scooby_state_4033c5|52|-1 0,2,0,0,0,0,0,0,0,0,0,0,0,0,0,2,
scooby_state_4033c5|60|-1 0,2,0,0,0,0,0,0,0,0,0,0,0,0,0,2,
scooby_state_4033b9|58|19 0,0,1,0,0,0,0,0,0,0,0,0,0,0,1,2,
scooby_state_4033c9|33|4 0,0,2,0,0,0,0,0,0,0,0,0,0,0,0,2,
scooby_state_4033b9|42|20 0,0,0,0,0,0,0,0,0,0,0,0,0,0,2,2,
scooby_state_4033c9|12|4 0,1,1,0,0,0,0,0,0,0,0,0,0,0,0,2,
scooby_state_4033c5|10|-1 0,2,0,0,0,0,0,0,0,0,0,0,0,0,0,2,
scooby_state_4033c5|54|-1 0,2,0,0,0,0,0,0,0,0,0,0,0,0,0,2,
scooby_state_4033d5|49|-1 0,2,0,0,0,0,0,0,0,0,0,0,0,0,0,2,
scooby_state_4033b9|55|9 0,0,0,0,0,0,0,0,0,0,0,0,0,0,2,2,
scooby_state_4033b9|48|24 0,0,0,1,0,0,0,0,0,0,0,0,0,0,1,2,
scooby_state_4033c5|40|-1 0,2,0,0,0,0,0,0,0,0,0,0,0,0,0,2,
scooby_state_4033b9|46|17 0,0,0,0,0,0,0,0,0,0,0,0,0,0,2,2,
scooby_state_4033b9|27|27 0,0,0,0,0,0,0,0,0,0,0,1,1,0,0,2,
scooby_state_4033b9|42|25 0,0,0,0,0,0,0,0,0,0,0,0,0,0,2,2,
scooby_state_4033c5|44|-1 0,2,0,0,0,0,0,0,0,0,0,0,0,0,0,2,
scooby_state_4033b9|24|17 0,0,0,0,0,0,0,0,0,0,0,0,0,0,2,2,
scooby_state_4033b9|51|29 0,0,0,0,0,0,0,0,0,0,0,0,0,0,2,2,
scooby_state_4033b9|34|19 0,0,1,0,0,0,0,0,0,0,0,0,0,0,1,2,
scooby_state_4033c9|5|3 2,0,0,0,0,0,0,0,0,0,0,0,0,0,0,2,
scooby_state_4033d5|8|-1 0,2,0,0,0,0,0,0,0,0,0,0,0,0,0,2,
scooby_state_4033c5|58|-1 0,2,0,0,0,0,0,0,0,0,0,0,0,0,0,2,
scooby_state_4033b9|40|40 0,0,0,0,0,0,0,1,0,0,0,0,0,0,1,2,
scooby_state_4033c9|55|3 2,0,0,0,0,0,0,0,0,0,0,0,0,0,0,2,
scooby_state_4033c9|20|3 2,0,0,0,0,0,0,0,0,0,0,0,0,0,0,2,
scooby_state_4033c9|55|4 0,0,1,0,0,0,0,0,0,0,0,0,0,0,1,2,
scooby_state_4033c5|34|-1 0,2,0,0,0,0,0,0,0,0,0,0,0,0,0,2,
scooby_state_4033c5|56|-1 0,2,0,0,0,0,0,0,0,0,0,0,0,0,0,2,
scooby_state_4033c9|35|4 0,0,0,0,0,0,0,0,0,0,0,0,0,0,2,2,
scooby_state_4033b9|51|43 0,0,0,0,0,0,0,0,0,0,0,0,0,0,2,2,
scooby_state_4033c9|53|3 2,0,0,0,0,0,0,0,0,0,0,0,0,0,0,2,
scooby_state_4033b9|17|14 0,0,0,0,0,0,0,0,0,0,0,0,1,0,1,2,
scooby_state_4033c9|8|3 2,0,0,0,0,0,0,0,0,0,0,0,0,0,0,2,
scooby_state_4033b9|39|1 0,0,0,0,0,0,0,0,0,0,0,0,0,1,1,2,
scooby_state_4033c5|25|-1 0,2,0,0,0,0,0,0,0,0,0,0,0,0,0,2,
scooby_state_4033b9|61|25 0,0,0,0,0,0,0,0,0,0,0,0,0,0,2,2,
scooby_state_4033c9|16|3 2,0,0,0,0,0,0,0,0,0,0,0,0,0,0,2,
scooby_state_4033b9|48|6 0,0,0,0,0,0,0,0,0,0,0,0,0,0,2,2,
scooby_state_4033b9|50|32 0,0,0,0,0,0,0,0,0,0,0,0,0,0,2,2,
scooby_state_4033b9|55|19 0,0,0,1,0,0,0,0,0,0,0,0,0,0,1,2,
scooby_state_4033c5|6|-1 0,2,0,0,0,0,0,0,0,0,0,0,0,0,0,2,
scooby_state_4033c9|32|3 2,0,0,0,0,0,0,0,0,0,0,0,0,0,0,2,
scooby_state_4033c9|27|3 2,0,0,0,0,0,0,0,0,0,0,0,0,0,0,2,
scooby_state_4033c5|11|-1 0,2,0,0,0,0,0,0,0,0,0,0,0,0,0,2,
scooby_state_4033b9|44|25 0,0,0,0,0,0,0,0,0,0,0,0,0,0,2,2,
scooby_state_4033c9|25|4 0,0,2,0,0,0,0,0,0,0,0,0,0,0,0,2,
scooby_state_4033c5|45|-1 0,2,0,0,0,0,0,0,0,0,0,0,0,0,0,2,
scooby_state_4033c9|50|3 2,0,0,0,0,0,0,0,0,0,0,0,0,0,0,2,
scooby_state_4033c5|26|-1 0,2,0,0,0,0,0,0,0,0,0,0,0,0,0,2,
scooby_state_4033b9|34|17 0,0,0,0,0,0,0,0,0,0,0,0,0,0,2,2,
scooby_state_4033b9|29|28 0,0,0,0,0,0,0,0,0,0,0,0,0,0,2,2,
scooby_state_4033b9|29|27 0,0,0,0,0,0,0,1,0,0,0,0,1,0,0,2,
scooby_state_4033c9|26|4 0,0,1,0,0,0,0,0,0,0,0,0,0,0,1,2,
scooby_state_4033c5|18|-1 0,2,0,0,0,0,0,0,0,0,0,0,0,0,0,2,
scooby_state_4033b9|53|33 0,0,0,0,0,0,0,0,0,0,0,0,0,0,2,2,
scooby_state_4033b9|17|9 0,0,0,0,0,0,0,1,0,0,0,0,0,0,1,2,
scooby_state_4033c9|18|3 1,0,0,0,0,0,0,0,0,0,0,0,0,0,0,1,
scooby_state_4033d5|17|-1 0,1,0,0,0,0,0,0,0,0,0,0,0,0,0,1,
scooby_state_4033c9|24|4 0,0,1,0,0,0,0,0,0,0,0,0,0,0,0,1,
scooby_state_4033c9|15|5 0,0,1,0,0,0,0,0,0,0,0,0,0,0,0,1,
scooby_state_4033c9|24|3 1,0,0,0,0,0,0,0,0,0,0,0,0,0,0,1,
scooby_state_4033c9|53|4 0,0,0,0,0,0,0,0,0,0,0,0,0,0,1,1,
scooby_state_4033c9|30|-1 0,1,0,0,0,0,0,0,0,0,0,0,0,0,0,1,
scooby_state_4033d5|30|-1 1,0,0,0,0,0,0,0,0,0,0,0,0,0,0,1,
scooby_state_4033c9|45|8 0,0,1,0,0,0,0,0,0,0,0,0,0,0,0,1,
scooby_state_4033c9|58|4 0,0,1,0,0,0,0,0,0,0,0,0,0,0,0,1,
scooby_state_4033c9|38|4 0,0,1,0,0,0,0,0,0,0,0,0,0,0,0,1,
scooby_state_4033b9|61|17 0,0,0,0,0,0,0,0,0,0,0,0,0,0,1,1,
scooby_state_4033c9|26|3 1,0,0,0,0,0,0,0,0,0,0,0,0,0,0,1,
scooby_state_4033b9|47|25 0,0,0,0,0,0,0,0,0,0,0,0,0,0,1,1,
scooby_state_4033c5|51|-1 0,1,0,0,0,0,0,0,0,0,0,0,0,0,0,1,
scooby_state_4033c9|54|4 0,0,1,0,0,0,0,0,0,0,0,0,0,0,0,1,
scooby_state_4033c5|53|-1 0,1,0,0,0,0,0,0,0,0,0,0,0,0,0,1,
scooby_state_4033d5|40|-1 0,1,0,0,0,0,0,0,0,0,0,0,0,0,0,1,
scooby_state_4033c9|34|5 0,0,0,0,0,0,0,0,0,0,0,0,0,0,1,1,
scooby_state_4033c9|49|3 1,0,0,0,0,0,0,0,0,0,0,0,0,0,0,1,
scooby_state_4033c9|5|4 0,0,1,0,0,0,0,0,0,0,0,0,0,0,0,1,
scooby_state_4033b9|54|9 0,0,0,0,0,0,0,0,0,0,0,0,0,0,1,1,
scooby_state_4033d5|14|-1 0,1,0,0,0,0,0,0,0,0,0,0,0,0,0,1,
scooby_state_4033c5|28|-1 0,1,0,0,0,0,0,0,0,0,0,0,0,0,0,1,
scooby_state_4033d5|32|-1 0,1,0,0,0,0,0,0,0,0,0,0,0,0,0,1,
scooby_state_4033c9|37|3 1,0,0,0,0,0,0,0,0,0,0,0,0,0,0,1,
scooby_state_40156c|52|0 1,0,0,0,0,0,0,0,0,0,0,0,0,0,0,1,
scooby_state_4033c9|42|4 0,0,1,0,0,0,0,0,0,0,0,0,0,0,0,1,
scooby_state_401560|21|-1 1,0,0,0,0,0,0,0,0,0,0,0,0,0,0,1,
scooby_state_4033c9|9|4 0,0,1,0,0,0,0,0,0,0,0,0,0,0,0,1,
scooby_state_4033d5|13|-1 0,1,0,0,0,0,0,0,0,0,0,0,0,0,0,1,
scooby_state_4033c9|55|5 0,0,1,0,0,0,0,0,0,0,0,0,0,0,0,1,
scooby_state_4033b9|63|43 0,0,0,1,0,0,0,0,0,0,0,0,0,0,0,1,
scooby_state_4033b9|53|30 0,0,0,0,0,0,0,0,0,0,0,0,0,0,1,1,
scooby_state_4033c5|7|-1 0,1,0,0,0,0,0,0,0,0,0,0,0,0,0,1,
scooby_state_4033a0|62|0 1,0,0,0,0,0,0,0,0,0,0,0,0,0,0,1,
scooby_state_4033c5|57|-1 0,1,0,0,0,0,0,0,0,0,0,0,0,0,0,1,
scooby_state_4033b9|54|38 0,0,0,0,0,0,0,0,0,0,0,0,0,0,1,1,
scooby_state_4033c9|25|3 1,0,0,0,0,0,0,0,0,0,0,0,0,0,0,1,
scooby_state_4033c9|19|3 1,0,0,0,0,0,0,0,0,0,0,0,0,0,0,1,
scooby_state_4033c9|17|4 0,0,0,0,0,0,0,0,0,0,0,0,0,0,1,1,
scooby_state_4033c5|49|-1 0,1,0,0,0,0,0,0,0,0,0,0,0,0,0,1,
scooby_state_4033b9|63|12 0,0,0,0,0,1,0,0,0,0,0,0,0,0,0,1,
scooby_state_4033b9|29|24 0,0,0,0,0,0,0,0,0,0,0,0,0,0,1,1,
scooby_state_4033c9|19|5 0,0,0,0,0,0,0,0,0,0,0,0,0,0,1,1,
scooby_state_4033b9|46|4 0,0,0,0,0,0,0,0,0,0,0,0,0,0,1,1,
scooby_state_4033b9|19|14 0,0,0,0,0,0,0,0,0,0,0,0,0,0,1,1,
scooby_state_4033d5|4|-1 0,1,0,0,0,0,0,0,0,0,0,0,0,0,0,1,
scooby_state_4033d5|47|-1 0,1,0,0,0,0,0,0,0,0,0,0,0,0,0,1,
scooby_state_4033c9|3|3 1,0,0,0,0,0,0,0,0,0,0,0,0,0,0,1,
scooby_state_4033d5|62|-1 0,1,0,0,0,0,0,0,0,0,0,0,0,0,0,1,
scooby_state_4033b9|40|30 0,0,0,0,0,0,0,0,0,0,0,0,0,0,1,1,
scooby_state_4033a0|14|-1 1,0,0,0,0,0,0,0,0,0,0,0,0,0,0,1,
scooby_state_4033c9|61|5 0,0,0,0,0,0,0,0,0,0,0,1,0,0,0,1,
scooby_state_4033e0|15|0 1,0,0,0,0,0,0,0,0,0,0,0,0,0,0,1,
scooby_state_4033c5|19|-1 0,1,0,0,0,0,0,0,0,0,0,0,0,0,0,1,
scooby_state_4033b9|46|35 0,0,0,0,0,0,0,0,0,1,0,0,0,0,0,1,
scooby_state_4033c9|58|5 0,0,1,0,0,0,0,0,0,0,0,0,0,0,0,1,
scooby_state_4033c9|62|4 0,0,1,0,0,0,0,0,0,0,0,0,0,0,0,1,
scooby_state_4033c9|13|4 0,0,1,0,0,0,0,0,0,0,0,0,0,0,0,1,
scooby_state_4033c9|60|3 1,0,0,0,0,0,0,0,0,0,0,0,0,0,0,1,
scooby_state_4033b9|43|25 0,0,0,0,0,0,0,0,0,0,0,0,0,0,1,1,
scooby_state_4033c9|58|8 0,0,1,0,0,0,0,0,0,0,0,0,0,0,0,1,
scooby_state_4033c9|51|4 0,0,1,0,0,0,0,0,0,0,0,0,0,0,0,1,
scooby_state_4033d5|16|-1 0,1,0,0,0,0,0,0,0,0,0,0,0,0,0,1,
scooby_state_4033c9|58|3 1,0,0,0,0,0,0,0,0,0,0,0,0,0,0,1,
scooby_state_4033c9|18|4 0,0,1,0,0,0,0,0,0,0,0,0,0,0,0,1,
scooby_state_4033c9|61|3 1,0,0,0,0,0,0,0,0,0,0,0,0,0,0,1,
scooby_state_4033c9|16|4 0,0,1,0,0,0,0,0,0,0,0,0,0,0,0,1,
scooby_state_4033d5|43|-1 0,1,0,0,0,0,0,0,0,0,0,0,0,0,0,1,
scooby_state_4033c5|33|-1 0,1,0,0,0,0,0,0,0,0,0,0,0,0,0,1,
scooby_state_4033d5|28|-1 0,1,0,0,0,0,0,0,0,0,0,0,0,0,0,1,
scooby_state_4033c9|46|3 1,0,0,0,0,0,0,0,0,0,0,0,0,0,0,1,
scooby_state_4033d5|55|-1 0,1,0,0,0,0,0,0,0,0,0,0,0,0,0,1,
scooby_state_4033c9|23|3 1,0,0,0,0,0,0,0,0,0,0,0,0,0,0,1,
scooby_state_4033b9|58|22 0,0,0,0,0,0,0,0,0,0,0,0,0,0,1,1,
scooby_state_4033b9|41|35 0,0,0,0,0,0,0,0,0,0,0,0,0,0,1,1,
scooby_state_4033c9|60|5 0,0,1,0,0,0,0,0,0,0,0,0,0,0,0,1,
scooby_state_401582|22|0 1,0,0,0,0,0,0,0,0,0,0,0,0,0,0,1,
scooby_state_4033d5|7|-1 0,1,0,0,0,0,0,0,0,0,0,0,0,0,0,1,
scooby_state_4033c9|39|4 0,0,1,0,0,0,0,0,0,0,0,0,0,0,0,1,
scooby_state_4033b9|44|17 0,1,0,0,0,0,0,0,0,0,0,0,0,0,0,1,
scooby_state_4033c9|7|5 0,0,1,0,0,0,0,0,0,0,0,0,0,0,0,1,
scooby_state_4033b9|37|22 0,0,0,0,0,0,0,0,0,0,0,0,0,0,1,1,
scooby_state_4033c9|57|3 1,0,0,0,0,0,0,0,0,0,0,0,0,0,0,1,
scooby_state_4033c9|60|4 0,0,1,0,0,0,0,0,0,0,0,0,0,0,0,1,
scooby_state_4033c5|50|-1 0,1,0,0,0,0,0,0,0,0,0,0,0,0,0,1,
scooby_state_4033c9|9|5 0,0,0,0,0,1,0,0,0,0,0,0,0,0,0,1,
scooby_state_4033c9|40|4 0,0,1,0,0,0,0,0,0,0,0,0,0,0,0,1,
scooby_state_4033c5|62|-1 0,1,0,0,0,0,0,0,0,0,0,0,0,0,0,1,
scooby_state_4033f0|60|-2 1,0,0,0,0,0,0,0,0,0,0,0,0,0,0,1,
scooby_state_4033c5|42|-1 0,1,0,0,0,0,0,0,0,0,0,0,0,0,0,1,
scooby_state_4033c9|8|4 0,0,1,0,0,0,0,0,0,0,0,0,0,0,0,1,
scooby_state_4033c5|55|-1 0,1,0,0,0,0,0,0,0,0,0,0,0,0,0,1,
scooby_state_4033c9|15|3 1,0,0,0,0,0,0,0,0,0,0,0,0,0,0,1,
scooby_state_4033d5|23|-1 0,1,0,0,0,0,0,0,0,0,0,0,0,0,0,1,
scooby_state_4033c9|30|4 0,0,1,0,0,0,0,0,0,0,0,0,0,0,0,1,
scooby_state_4033d5|3|-1 0,1,0,0,0,0,0,0,0,0,0,0,0,0,0,1,
scooby_state_40159c|61|0 1,0,0,0,0,0,0,0,0,0,0,0,0,0,0,1,
scooby_state_4033c9|46|-2 0,1,0,0,0,0,0,0,0,0,0,0,0,0,0,1,
scooby_state_4033b9|62|25 0,0,0,0,0,0,0,0,0,0,0,0,0,0,1,1,
scooby_state_4033c5|20|-1 0,1,0,0,0,0,0,0,0,0,0,0,0,0,0,1,
scooby_state_4033c9|7|4 0,0,0,0,0,0,0,0,0,0,0,0,0,0,1,1,

scooby_action_0_deg_dist 0,201353,0,0,0,0,0,0,0,0,0,0,0,0,0,0,
scooby_action_-6_deg_dist 0,1222,0,0,0,0,0,0,0,0,0,0,0,0,0,0,
scooby_action_4_deg_dist 0,1961,115,0,71,0,20,0,0,0,0,0,0,0,0,0,
scooby_action_1_deg_dist 0,29405,9887,0,24997,0,193192,0,0,0,0,0,0,0,0,0,
scooby_action_30_deg_dist 0,953,1,0,0,0,0,0,0,0,0,0,0,0,0,0,
scooby_action_5_deg_dist 0,1191,19,0,9,0,0,0,0,0,0,0,0,0,0,0,
scooby_action_10_deg_dist 0,1114,11,0,3,0,0,0,0,0,0,0,0,0,0,0,
scooby_action_3_deg_dist 0,15297,8362,0,7643,0,0,0,0,0,0,0,0,0,0,0,
scooby_action_32_deg_dist 0,925,0,0,0,0,0,0,0,0,0,0,0,0,0,0,
scooby_action_11_deg_dist 0,1124,0,0,0,0,0,0,0,0,0,0,0,0,0,0,
scooby_action_12_deg_dist 0,1114,3,0,0,0,0,0,0,0,0,0,0,0,0,0,
scooby_action_22_deg_dist 0,1028,2,0,0,0,0,0,0,0,0,0,0,0,0,0,
scooby_action_23_deg_dist 0,1037,2,0,2,0,0,0,0,0,0,0,0,0,0,0,
scooby_action_-1_deg_dist 0,1226,3,0,1,0,0,0,0,0,0,0,0,0,0,0,
scooby_action_-3_deg_dist 0,1393,6,0,0,0,0,0,0,0,0,0,0,0,0,0,

scooby_track_called 504692
scooby_track_same_address 28267
scooby_track_evict 476169

scooby_reward_demand_called 504692
scooby_reward_demand_pt_not_found 266573
scooby_reward_demand_pt_found 238119
scooby_reward_demand_pt_found_total 238119
scooby_reward_demand_has_reward 0
scooby_reward_train_called 230632
scooby_reward_assign_reward_called 476296
scooby_reward_no_pref 201235
scooby_reward_incorrect 29397
scooby_reward_correct_untimely 210269
scooby_reward_correct_timely 27850
scooby_reward_out_of_bounds 7545
scooby_reward_tracker_hit 0

scooby_reward_none_low_bw 201235
scooby_reward_none_high_bw 0
scooby_reward_incorrect_low_bw 29397
scooby_reward_incorrect_high_bw 0
scooby_reward_correct_untimely_low_bw 210269
scooby_reward_correct_untimely_high_bw 0
scooby_reward_correct_timely_low_bw 27850
scooby_reward_correct_timely_high_bw 0
scooby_reward_out_of_bounds_low_bw 7545
scooby_reward_out_of_bounds_high_bw 0
scooby_reward_tracker_hit_low_bw 0
scooby_reward_tracker_hit_high_bw 0

scooby_reward_1 0,15679,189119,20665,3977,0,
scooby_reward_3 0,2044,21043,6677,1478,0,
scooby_reward_4 0,1740,51,243,122,0,
scooby_reward_5 0,1095,20,27,71,0,
scooby_reward_10 0,934,1,37,149,0,
scooby_reward_11 0,957,3,31,126,0,
scooby_reward_12 0,926,2,31,151,0,
scooby_reward_22 0,755,1,32,238,0,
scooby_reward_23 0,754,1,20,259,0,
scooby_reward_30 0,572,1,21,352,0,
scooby_reward_32 0,512,3,18,387,0,
scooby_reward_-1 0,1152,1,8,22,0,
scooby_reward_-3 0,1244,17,21,74,0,
scooby_reward_-6 0,1033,6,19,139,0,
scooby_reward_0 201235,0,0,0,0,0,

scooby_train_called 476168
scooby_train_compute_reward 230632

scooby_register_fill_called 271436
scooby_register_fill_set 52410
scooby_register_fill_set_total 52410

scooby_register_prefetch_hit_called 478511
scooby_register_prefetch_hit_set 199831
scooby_register_prefetch_hit_set_total 199831

scooby_pref_issue_scooby 1145484

learning_engine_featurewise.action.called 504692
learning_engine_featurewise.action.explore 928
learning_engine_featurewise.action.exploit 503764
learning_engine_featurewise.action.fallback 0
learning_engine_featurewise.action.dyn_fallback_saved_bw 0
learning_engine_featurewise.action.dyn_fallback_saved_bw_acc 139
learning_engine_featurewise.action.index_1_explored 51
learning_engine_featurewise.action.index_1_exploited 257430
learning_engine_featurewise.action.index_3_explored 65
learning_engine_featurewise.action.index_3_exploited 31237
learning_engine_featurewise.action.index_4_explored 57
learning_engine_featurewise.action.index_4_exploited 2110
learning_engine_featurewise.action.index_5_explored 56
learning_engine_featurewise.action.index_5_exploited 1163
learning_engine_featurewise.action.index_10_explored 71
learning_engine_featurewise.action.index_10_exploited 1057
learning_engine_featurewise.action.index_11_explored 63
learning_engine_featurewise.action.index_11_exploited 1061
learning_engine_featurewise.action.index_12_explored 66
learning_engine_featurewise.action.index_12_exploited 1051
learning_engine_featurewise.action.index_22_explored 64
learning_engine_featurewise.action.index_22_exploited 966
learning_engine_featurewise.action.index_23_explored 60
learning_engine_featurewise.action.index_23_exploited 981
learning_engine_featurewise.action.index_30_explored 75
learning_engine_featurewise.action.index_30_exploited 879
learning_engine_featurewise.action.index_32_explored 49
learning_engine_featurewise.action.index_32_exploited 876
learning_engine_featurewise.action.index_-1_explored 76
learning_engine_featurewise.action.index_-1_exploited 1154
learning_engine_featurewise.action.index_-3_explored 59
learning_engine_featurewise.action.index_-3_exploited 1340
learning_engine_featurewise.action.index_-6_explored 52
learning_engine_featurewise.action.index_-6_exploited 1170
learning_engine_featurewise.action.index_0_explored 64
learning_engine_featurewise.action.index_0_exploited 201289
learning_engine_featurewise.learn.called 476168
learning_engine_featurewise.learn.su_skip_PC 0
learning_engine_featurewise.learn.su_skip_PC_Delta 0

learning_engine_featurewise.q_value_histogram.bucket_0 0
learning_engine_featurewise.q_value_histogram.bucket_1 0
learning_engine_featurewise.q_value_histogram.bucket_2 0
learning_engine_featurewise.q_value_histogram.bucket_3 139700
learning_engine_featurewise.q_value_histogram.bucket_4 87640
learning_engine_featurewise.q_value_histogram.bucket_5 7151
learning_engine_featurewise.q_value_histogram.bucket_6 269273
learning_engine_featurewise.q_value_histogram.bucket_7 0

learning_engine_featurewise.consensus.total 503764
learning_engine_featurewise.consensus.feature_align_PC 473137
learning_engine_featurewise.consensus.feature_align_PC_ratio 0.94
learning_engine_featurewise.consensus.feature_align_PC_Delta 492883
learning_engine_featurewise.consensus.feature_align_PC_Delta_ratio 0.98
learning_engine_featurewise.consensus.feature_align_all 462256
learning_engine_featurewise.consensus.feature_align_all_ratio 0.92

learning_engine_featurewise.feature_PC_min_weight 1000000.00000000
learning_engine_featurewise.feature_PC_max_weight 0.00000000
learning_engine_featurewise.feature_PC_Delta_min_weight 1000000.00000000
learning_engine_featurewise.feature_PC_Delta_max_weight 0.00000000
unique_pcs 12
unique_pages 4798
unique_trigger_pcs 8
total_bitmaps_seen 0
unique_bitmaps_seen 0

scooby_bw_epochs 252345
scooby_bw_level_0 90464
scooby_bw_level_1 156523
scooby_bw_level_2 5357
scooby_bw_level_3 1

scooby_ipc_epochs 0
scooby_ipc_level_0 0
scooby_ipc_level_1 0
scooby_ipc_level_2 0
scooby_ipc_level_3 0

scooby_cache_acc_epochs 39879
scooby_cache_acc_level_0 1
scooby_cache_acc_level_1 4
scooby_cache_acc_level_2 16
scooby_cache_acc_level_3 100
scooby_cache_acc_level_4 342
scooby_cache_acc_level_5 672
scooby_cache_acc_level_6 1721
scooby_cache_acc_level_7 4291
scooby_cache_acc_level_8 7607
scooby_cache_acc_level_9 25125

Channel_0_RQ_row_buffer_hit 39544
Channel_0_RQ_row_buffer_miss 678485
Channel_0_WQ_row_buffer_hit 64574
Channel_0_WQ_row_buffer_miss 640402
Channel_0_WQ_full 0
Channel_0_dbus_congested 850393

avg_congested_cycle 11

DRAM_bw_pochs 252345
DRAM_bw_level_0 90464
DRAM_bw_level_1 156523
DRAM_bw_level_2 5357
DRAM_bw_level_3 1
