Original cmd-> /cluster/home/vlnitu/CA-Lab4-24-vlnitu/Pythia/bin/perceptron-no-multi-no-ship-1core --warmup_instructions=1000000 --simulation_instructions=10000000 --config=/cluster/home/vlnitu/CA-Lab4-24-vlnitu/Pythia/config/nopref.ini --mail-type=BEGIN,END  -traces /cluster/home/vlnitu/CA-Lab4-24-vlnitu/Pythia/traces/619.lbm_s-2677B.champsimtrace.xz
*************************************************
   ChampSim Multicore Out-of-Order Simulator
   Last compiled: Nov 19 2024 20:10:11
*************************************************
parsing config file: /cluster/home/vlnitu/CA-Lab4-24-vlnitu/Pythia/config/nopref.ini
unable to parse section: , name: mail-type, value: BEGIN,END

trace_0 /cluster/home/vlnitu/CA-Lab4-24-vlnitu/Pythia/traces/619.lbm_s-2677B.champsimtrace.xz
adding L2C_PREFETCHER: NONE
Initialize SHIP state
warmup_instructions 1000000
simulation_instructions 10000000
champsim_seed 280
measure_ipc 0
measure_ipc_epoch 1000
measure_dram_bw 1
measure_dram_bw_epoch 256
measure_cache_acc 1
measure_cache_acc_epoch 1024
l1d_perfect 0
l2c_perfect 0
llc_perfect 0
l1d_semi_perfect 0
l2c_semi_perfect 0
llc_semi_perfect 0
semi_perfect_cache_page_buffer_size 64

num_cpus 1
cpu_freq 4000
dram_io_freq 2400
page_size 4096
block_size 64
max_read_per_cycle 8
max_fill_per_cycle 1
dram_channels 1
log2_dram_channels 0
dram_ranks 1
dram_banks 8
dram_rows 65536
dram_columns 128
dram_row_size 8
dram_size 4096
dram_pages 1048576

fetch_width 6
decode_width 6
exec_width 4
lq_width 2
sq_width 2
retire_width 4
scheduler_size 128
branch_mispredict_penalty 20
rob_size 256
lq_size 72
sq_size 56
num_instr_destinations_sparc 4
num_instr_destinations 2
num_instr_sources 4

itlb_set 16
itlb_way 8
itlb_rq_size 16
itlb_wq_size 16
itlb_pq_size 0
itlb_mshr_size 8
itlb_latency 1

dtlb_set 16
dtlb_way 4
dtlb_rq_size 16
dtlb_wq_size 16
dtlb_pq_size 0
dtlb_mshr_size 8
dtlb_latency 1

stlb_set 128
stlb_way 12
stlb_rq_size 32
stlb_wq_size 32
stlb_pq_size 0
stlb_mshr_size 16
stlb_latency 8

l1i_size 32
l1i_set 64
l1i_way 8
l1i_rq_size 64
l1i_wq_size 64
l1i_pq_size 8
l1i_mshr_size 8
l1i_latency 1

l1d_size 32
l1d_set 64
l1d_way 8
l1d_rq_size 64
l1d_wq_size 64
l1d_pq_size 8
l1d_mshr_size 16
l1d_latency 4

l2c_size 256
l2c_set 512
l2c_way 8
l2c_rq_size 32
l2c_wq_size 32
l2c_pq_size 32
l2c_mshr_size 32
l2c_latency 10

llc_size 2048
llc_set 2048
llc_way 16
llc_rq_size 32
llc_wq_size 32
llc_pq_size 32
llc_mshr_size 64
llc_latency 20

dram_channel_width 8
dram_wq_size 64
dram_rq_size 64
tRP 15
tRCD 15
tCAS 12.5
dram_dbus_turn_around_time 30
dram_write_high_wm 56
dram_write_low_wm 48
min_dram_writes_per_switch 16
dram_mtps 2400
dram_dbus_return_time 13


Heartbeat CPU  0 instructions:    1000002 cycles:     421425 heartbeat IPC: 2.37291 cumulative IPC: 2.37291 (Simulation time: 0 hr 0 min 1 sec) 

Warmup complete CPU  0 instructions:    1000002 cycles:     421425 (Simulation time: 0 hr 0 min 1 sec) 

Heartbeat CPU  0 instructions:    2000002 cycles:    3085534 heartbeat IPC: 0.37536 cumulative IPC: 0.37536 (Simulation time: 0 hr 0 min 4 sec) 
Heartbeat CPU  0 instructions:    3000001 cycles:    5574577 heartbeat IPC: 0.40176 cumulative IPC: 0.38811 (Simulation time: 0 hr 0 min 7 sec) 
Heartbeat CPU  0 instructions:    4000000 cycles:    8163917 heartbeat IPC: 0.38620 cumulative IPC: 0.38747 (Simulation time: 0 hr 0 min 9 sec) 
Heartbeat CPU  0 instructions:    5000003 cycles:   11282017 heartbeat IPC: 0.32071 cumulative IPC: 0.36830 (Simulation time: 0 hr 0 min 12 sec) 
Heartbeat CPU  0 instructions:    6000001 cycles:   14174813 heartbeat IPC: 0.34569 cumulative IPC: 0.36355 (Simulation time: 0 hr 0 min 15 sec) 
Heartbeat CPU  0 instructions:    7000000 cycles:   17218666 heartbeat IPC: 0.32853 cumulative IPC: 0.35720 (Simulation time: 0 hr 0 min 17 sec) 
Heartbeat CPU  0 instructions:    8000000 cycles:   20193669 heartbeat IPC: 0.33613 cumulative IPC: 0.35403 (Simulation time: 0 hr 0 min 20 sec) 
Heartbeat CPU  0 instructions:    9000000 cycles:   23278895 heartbeat IPC: 0.32413 cumulative IPC: 0.34999 (Simulation time: 0 hr 0 min 23 sec) 
Heartbeat CPU  0 instructions:   10000000 cycles:   26393914 heartbeat IPC: 0.32103 cumulative IPC: 0.34652 (Simulation time: 0 hr 0 min 26 sec) 
Heartbeat CPU  0 instructions:   11000000 cycles:   29504801 heartbeat IPC: 0.32145 cumulative IPC: 0.34384 (Simulation time: 0 hr 0 min 29 sec) 
Finished CPU 0 instructions: 10000003 cycles: 29083380 cumulative IPC: 0.34384 (Simulation time: 0 hr 0 min 29 sec) 

ChampSim completed all CPUs

[ROI Statistics]
Core_0_instructions 10000003
Core_0_cycles 29083380
Core_0_IPC 0.34384

Core_0_branch_prediction_accuracy 97.02603
Core_0_branch_MPKI 0.53300
Core_0_average_ROB_occupancy_at_mispredict 241.77749

Core_0_L1D_total_access 2833807
Core_0_L1D_total_hit 2050232
Core_0_L1D_total_miss 783575
Core_0_L1D_loads 1002819
Core_0_L1D_load_hit 884009
Core_0_L1D_load_miss 118810
Core_0_L1D_RFOs 1830988
Core_0_L1D_RFO_hit 1166223
Core_0_L1D_RFO_miss 664765
Core_0_L1D_prefetches 0
Core_0_L1D_prefetch_hit 0
Core_0_L1D_prefetch_miss 0
Core_0_L1D_writebacks 0
Core_0_L1D_writeback_hit 0
Core_0_L1D_writeback_miss 0
Core_0_L1D_prefetch_requested 0
Core_0_L1D_prefetch_dropped 0
Core_0_L1D_prefetch_issued 0
Core_0_L1D_prefetch_filled 0
Core_0_L1D_prefetch_useful 0
Core_0_L1D_prefetch_useless 0
Core_0_L1D_prefetch_late 0
Core_0_L1D_average_miss_latency 364.91683

Core_0_L1D_rq_access 2356139
Core_0_L1D_rq_forward 0
Core_0_L1D_rq_merged 1295085
Core_0_L1D_rq_to_cache 1054988
Core_0_L1D_rq_full 0

Core_0_L1D_wq_access 1841059
Core_0_L1D_wq_forward 6066
Core_0_L1D_wq_merged 1145
Core_0_L1D_wq_to_cache 1839914
Core_0_L1D_wq_full 0

Core_0_L1D_pq_access 0
Core_0_L1D_pq_forward 0
Core_0_L1D_pq_merged 0
Core_0_L1D_pq_to_cache 0
Core_0_L1D_pq_full 0

Core_0_L1D_acc_epochs 28097
Core_0_L1D_acc_level_0 28097
Core_0_L1D_acc_level_1 0
Core_0_L1D_acc_level_2 0
Core_0_L1D_acc_level_3 0
Core_0_L1D_acc_level_4 0
Core_0_L1D_acc_level_5 0
Core_0_L1D_acc_level_6 0
Core_0_L1D_acc_level_7 0
Core_0_L1D_acc_level_8 0
Core_0_L1D_acc_level_9 0

Core_0_L1I_total_access 2310088
Core_0_L1I_total_hit 2310088
Core_0_L1I_total_miss 0
Core_0_L1I_loads 2310088
Core_0_L1I_load_hit 2310088
Core_0_L1I_load_miss 0
Core_0_L1I_RFOs 0
Core_0_L1I_RFO_hit 0
Core_0_L1I_RFO_miss 0
Core_0_L1I_prefetches 0
Core_0_L1I_prefetch_hit 0
Core_0_L1I_prefetch_miss 0
Core_0_L1I_writebacks 0
Core_0_L1I_writeback_hit 0
Core_0_L1I_writeback_miss 0
Core_0_L1I_prefetch_requested 0
Core_0_L1I_prefetch_dropped 0
Core_0_L1I_prefetch_issued 0
Core_0_L1I_prefetch_filled 0
Core_0_L1I_prefetch_useful 0
Core_0_L1I_prefetch_useless 0
Core_0_L1I_prefetch_late 0
Core_0_L1I_average_miss_latency -nan

Core_0_L1I_rq_access 10000006
Core_0_L1I_rq_forward 0
Core_0_L1I_rq_merged 7689918
Core_0_L1I_rq_to_cache 2310088
Core_0_L1I_rq_full 0

Core_0_L1I_wq_access 0
Core_0_L1I_wq_forward 0
Core_0_L1I_wq_merged 0
Core_0_L1I_wq_to_cache 0
Core_0_L1I_wq_full 0

Core_0_L1I_pq_access 0
Core_0_L1I_pq_forward 0
Core_0_L1I_pq_merged 0
Core_0_L1I_pq_to_cache 0
Core_0_L1I_pq_full 0

Core_0_L1I_acc_epochs 28097
Core_0_L1I_acc_level_0 28097
Core_0_L1I_acc_level_1 0
Core_0_L1I_acc_level_2 0
Core_0_L1I_acc_level_3 0
Core_0_L1I_acc_level_4 0
Core_0_L1I_acc_level_5 0
Core_0_L1I_acc_level_6 0
Core_0_L1I_acc_level_7 0
Core_0_L1I_acc_level_8 0
Core_0_L1I_acc_level_9 0

Core_0_L2C_total_access 1448335
Core_0_L2C_total_hit 907506
Core_0_L2C_total_miss 540829
Core_0_L2C_loads 118810
Core_0_L2C_load_hit 65
Core_0_L2C_load_miss 118745
Core_0_L2C_RFOs 664762
Core_0_L2C_RFO_hit 242829
Core_0_L2C_RFO_miss 421933
Core_0_L2C_prefetches 0
Core_0_L2C_prefetch_hit 0
Core_0_L2C_prefetch_miss 0
Core_0_L2C_writebacks 664763
Core_0_L2C_writeback_hit 664612
Core_0_L2C_writeback_miss 151
Core_0_L2C_prefetch_requested 0
Core_0_L2C_prefetch_dropped 0
Core_0_L2C_prefetch_issued 0
Core_0_L2C_prefetch_filled 0
Core_0_L2C_prefetch_useful 0
Core_0_L2C_prefetch_useless 0
Core_0_L2C_prefetch_late 0
Core_0_L2C_average_miss_latency 506.26257

Core_0_L2C_rq_access 783586
Core_0_L2C_rq_forward 0
Core_0_L2C_rq_merged 0
Core_0_L2C_rq_to_cache 783583
Core_0_L2C_rq_full 0

Core_0_L2C_wq_access 664764
Core_0_L2C_wq_forward 3
Core_0_L2C_wq_merged 0
Core_0_L2C_wq_to_cache 664764
Core_0_L2C_wq_full 0

Core_0_L2C_pq_access 0
Core_0_L2C_pq_forward 0
Core_0_L2C_pq_merged 0
Core_0_L2C_pq_to_cache 0
Core_0_L2C_pq_full 0

Core_0_L2C_acc_epochs 28097
Core_0_L2C_acc_level_0 28097
Core_0_L2C_acc_level_1 0
Core_0_L2C_acc_level_2 0
Core_0_L2C_acc_level_3 0
Core_0_L2C_acc_level_4 0
Core_0_L2C_acc_level_5 0
Core_0_L2C_acc_level_6 0
Core_0_L2C_acc_level_7 0
Core_0_L2C_acc_level_8 0
Core_0_L2C_acc_level_9 0

Core_0_LLC_total_access 962618
Core_0_LLC_total_hit 241449
Core_0_LLC_total_miss 721169
Core_0_LLC_loads 118745
Core_0_LLC_load_hit 89
Core_0_LLC_load_miss 118656
Core_0_LLC_RFOs 421908
Core_0_LLC_RFO_hit 64365
Core_0_LLC_RFO_miss 357543
Core_0_LLC_prefetches 0
Core_0_LLC_prefetch_hit 0
Core_0_LLC_prefetch_miss 0
Core_0_LLC_writebacks 421965
Core_0_LLC_writeback_hit 176995
Core_0_LLC_writeback_miss 244970
Core_0_LLC_prefetch_requested 0
Core_0_LLC_prefetch_dropped 0
Core_0_LLC_prefetch_issued 0
Core_0_LLC_prefetch_filled 0
Core_0_LLC_prefetch_useful 0
Core_0_LLC_prefetch_useless 0
Core_0_LLC_prefetch_late 0
Core_0_LLC_average_miss_latency 355.89637

Core_0_LLC_rq_access 540683
Core_0_LLC_rq_forward 0
Core_0_LLC_rq_merged 0
Core_0_LLC_rq_to_cache 540658
Core_0_LLC_rq_full 0

Core_0_LLC_wq_access 421965
Core_0_LLC_wq_forward 25
Core_0_LLC_wq_merged 0
Core_0_LLC_wq_to_cache 421965
Core_0_LLC_wq_full 0

Core_0_LLC_pq_access 0
Core_0_LLC_pq_forward 0
Core_0_LLC_pq_merged 0
Core_0_LLC_pq_to_cache 0
Core_0_LLC_pq_full 0

Core_0_LLC_acc_epochs 28814
Core_0_LLC_acc_level_0 28814
Core_0_LLC_acc_level_1 0
Core_0_LLC_acc_level_2 0
Core_0_LLC_acc_level_3 0
Core_0_LLC_acc_level_4 0
Core_0_LLC_acc_level_5 0
Core_0_LLC_acc_level_6 0
Core_0_LLC_acc_level_7 0
Core_0_LLC_acc_level_8 0
Core_0_LLC_acc_level_9 0

Core_0_major_page_fault 0
Core_0_minor_page_fault 7227

Channel_0_RQ_row_buffer_hit 132162
Channel_0_RQ_row_buffer_miss 344017
Channel_0_WQ_row_buffer_hit 54403
Channel_0_WQ_row_buffer_miss 298753
Channel_0_WQ_full 0
Channel_0_dbus_congested 586407

avg_congested_cycle 11

DRAM_bw_pochs 115254
DRAM_bw_level_0 31432
DRAM_bw_level_1 43239
DRAM_bw_level_2 29060
DRAM_bw_level_3 11523
