Original cmd-> /cluster/home/vlnitu/CA-Lab4-24-vlnitu/Pythia/bin/perceptron-no-multi-no-ship-1core --warmup_instructions=1000000 --simulation_instructions=10000000 --l2c_prefetcher_types=scooby --config=/cluster/home/vlnitu/CA-Lab4-24-vlnitu/Pythia/config/pythia.ini --mail-type=BEGIN,END  -traces /cluster/home/vlnitu/CA-Lab4-24-vlnitu/Pythia/traces/619.lbm_s-2677B.champsimtrace.xz
*************************************************
   ChampSim Multicore Out-of-Order Simulator
   Last compiled: Nov 19 2024 20:10:11
*************************************************
parsing config file: /cluster/home/vlnitu/CA-Lab4-24-vlnitu/Pythia/config/pythia.ini
unable to parse section: , name: mail-type, value: BEGIN,END

trace_0 /cluster/home/vlnitu/CA-Lab4-24-vlnitu/Pythia/traces/619.lbm_s-2677B.champsimtrace.xz
adding L2C_PREFETCHER: Scooby
Initialize SHIP state
warmup_instructions 1000000
simulation_instructions 10000000
champsim_seed 280
measure_ipc 0
measure_ipc_epoch 1000
measure_dram_bw 1
measure_dram_bw_epoch 256
measure_cache_acc 1
measure_cache_acc_epoch 1024
l1d_perfect 0
l2c_perfect 0
llc_perfect 0
l1d_semi_perfect 0
l2c_semi_perfect 0
llc_semi_perfect 0
semi_perfect_cache_page_buffer_size 64

num_cpus 1
cpu_freq 4000
dram_io_freq 2400
page_size 4096
block_size 64
max_read_per_cycle 8
max_fill_per_cycle 1
dram_channels 1
log2_dram_channels 0
dram_ranks 1
dram_banks 8
dram_rows 65536
dram_columns 128
dram_row_size 8
dram_size 4096
dram_pages 1048576

fetch_width 6
decode_width 6
exec_width 4
lq_width 2
sq_width 2
retire_width 4
scheduler_size 128
branch_mispredict_penalty 20
rob_size 256
lq_size 72
sq_size 56
num_instr_destinations_sparc 4
num_instr_destinations 2
num_instr_sources 4

itlb_set 16
itlb_way 8
itlb_rq_size 16
itlb_wq_size 16
itlb_pq_size 0
itlb_mshr_size 8
itlb_latency 1

dtlb_set 16
dtlb_way 4
dtlb_rq_size 16
dtlb_wq_size 16
dtlb_pq_size 0
dtlb_mshr_size 8
dtlb_latency 1

stlb_set 128
stlb_way 12
stlb_rq_size 32
stlb_wq_size 32
stlb_pq_size 0
stlb_mshr_size 16
stlb_latency 8

l1i_size 32
l1i_set 64
l1i_way 8
l1i_rq_size 64
l1i_wq_size 64
l1i_pq_size 8
l1i_mshr_size 8
l1i_latency 1

l1d_size 32
l1d_set 64
l1d_way 8
l1d_rq_size 64
l1d_wq_size 64
l1d_pq_size 8
l1d_mshr_size 16
l1d_latency 4

l2c_size 256
l2c_set 512
l2c_way 8
l2c_rq_size 32
l2c_wq_size 32
l2c_pq_size 32
l2c_mshr_size 32
l2c_latency 10

llc_size 2048
llc_set 2048
llc_way 16
llc_rq_size 32
llc_wq_size 32
llc_pq_size 32
llc_mshr_size 64
llc_latency 20

dram_channel_width 8
dram_wq_size 64
dram_rq_size 64
tRP 15
tRCD 15
tCAS 12.5
dram_dbus_turn_around_time 30
dram_write_high_wm 56
dram_write_low_wm 48
min_dram_writes_per_switch 16
dram_mtps 2400
dram_dbus_return_time 13

scooby_alpha 0.0065088
scooby_gamma 0.556301
scooby_epsilon 0.00182284
scooby_state_num_bits 10
scooby_max_states 1024
scooby_seed 200
scooby_policy EGreedy
scooby_learning_type SARSA
scooby_actions 1,3,4,5,10,11,12,22,23,30,32,-1,-3,-6,0,
scooby_max_actions 15
scooby_pt_size 256
scooby_st_size 64
scooby_max_pcs 5
scooby_max_offsets 5
scooby_max_deltas 5
scooby_reward_none -4
scooby_reward_incorrect -8
scooby_reward_correct_untimely 12
scooby_reward_correct_timely 20
scooby_brain_zero_init 0
scooby_enable_reward_all 0
scooby_enable_track_multiple 0
scooby_enable_reward_out_of_bounds 1
scooby_reward_out_of_bounds -12
scooby_state_type 1
scooby_state_hash_type 11
scooby_access_debug 0
scooby_print_access_debug 0
scooby_print_access_debug_pc deadbeef
scooby_print_access_debug_pc_count 0
scooby_print_trace 0
scooby_enable_state_action_stats 1
scooby_enable_reward_tracker_hit 0
scooby_reward_tracker_hit -2
scooby_enable_featurewise_engine 1
scooby_pref_degree 1
scooby_enable_dyn_degree 1
scooby_max_to_avg_q_thresholds 0.5,1,2,
scooby_dyn_degrees 1,2,4,4,
scooby_multi_deg_select_type 2
scooby_last_pref_offset_conf_thresholds 1,3,8,
scooby_dyn_degrees_type2 1,2,4,6,
scooby_action_tracker_size 2
scooby_high_bw_thresh 4
scooby_enable_hbw_reward 1
scooby_reward_hbw_correct_timely 20
scooby_reward_hbw_correct_untimely 12
scooby_reward_hbw_incorrect -14
scooby_reward_hbw_none -2
scooby_reward_hbw_out_of_bounds -12
scooby_reward_hbw_tracker_hit -2
scooby_last_pref_offset_conf_thresholds_hbw 1,3,8,
scooby_dyn_degrees_type2_hbw 1,2,4,6,

le_enable_trace 0
le_trace_interval 0
le_trace_file_name 
le_trace_state 0
le_enable_score_plot 0
le_plot_file_name 
le_plot_actions 
le_enable_action_trace 0
le_action_trace_interval 0
le_action_trace_name 
le_enable_action_plot 0

le_featurewise_active_features PC, PC_Delta
le_featurewise_num_tilings 3,3,
le_featurewise_num_tiles 128,128,
le_featurewise_hash_types 2,2,
le_featurewise_enable_tiling_offset 1,1,
le_featurewise_max_q_thresh 0.5
le_featurewise_enable_action_fallback 1
le_featurewise_feature_weights 1,1,
le_featurewise_enable_dynamic_weight 0
le_featurewise_weight_gradient 0.001
le_featurewise_disable_adjust_weight_all_features_align 1
le_featurewise_selective_update 0
le_featurewise_pooling_type 2
le_featurewise_enable_dyn_action_fallback 1
le_featurewise_bw_acc_check_level 1
le_featurewise_acc_thresh 2
le_featurewise_enable_trace 0
le_featurewise_trace_feature_type 0
le_featurewise_trace_feature 
le_featurewise_trace_interval 0
le_featurewise_trace_record_count 0
le_featurewise_trace_file_name 
le_featurewise_enable_score_plot 0
le_featurewise_plot_actions 
le_featurewise_plot_file_name 


Heartbeat CPU  0 instructions:    1000002 cycles:     425200 heartbeat IPC: 2.35184 cumulative IPC: 2.35184 (Simulation time: 0 hr 0 min 2 sec) 

Warmup complete CPU  0 instructions:    1000002 cycles:     425200 (Simulation time: 0 hr 0 min 2 sec) 

Heartbeat CPU  0 instructions:    2000002 cycles:    2679839 heartbeat IPC: 0.44353 cumulative IPC: 0.44353 (Simulation time: 0 hr 0 min 4 sec) 
Heartbeat CPU  0 instructions:    3000001 cycles:    4774106 heartbeat IPC: 0.47749 cumulative IPC: 0.45989 (Simulation time: 0 hr 0 min 7 sec) 
Heartbeat CPU  0 instructions:    4000000 cycles:    6999122 heartbeat IPC: 0.44943 cumulative IPC: 0.45635 (Simulation time: 0 hr 0 min 9 sec) 
Heartbeat CPU  0 instructions:    5000001 cycles:    9723138 heartbeat IPC: 0.36711 cumulative IPC: 0.43020 (Simulation time: 0 hr 0 min 12 sec) 
Heartbeat CPU  0 instructions:    6000003 cycles:   12236615 heartbeat IPC: 0.39786 cumulative IPC: 0.42332 (Simulation time: 0 hr 0 min 15 sec) 
Heartbeat CPU  0 instructions:    7000000 cycles:   14889582 heartbeat IPC: 0.37694 cumulative IPC: 0.41481 (Simulation time: 0 hr 0 min 18 sec) 
Heartbeat CPU  0 instructions:    8000000 cycles:   17474694 heartbeat IPC: 0.38683 cumulative IPC: 0.41057 (Simulation time: 0 hr 0 min 20 sec) 
Heartbeat CPU  0 instructions:    9000000 cycles:   20136868 heartbeat IPC: 0.37563 cumulative IPC: 0.40585 (Simulation time: 0 hr 0 min 23 sec) 
Heartbeat CPU  0 instructions:   10000002 cycles:   22804003 heartbeat IPC: 0.37493 cumulative IPC: 0.40217 (Simulation time: 0 hr 0 min 26 sec) 
Heartbeat CPU  0 instructions:   11000000 cycles:   25482013 heartbeat IPC: 0.37341 cumulative IPC: 0.39909 (Simulation time: 0 hr 0 min 29 sec) 
Finished CPU 0 instructions: 10000003 cycles: 25056817 cumulative IPC: 0.39909 (Simulation time: 0 hr 0 min 29 sec) 

ChampSim completed all CPUs

[ROI Statistics]
Core_0_instructions 10000003
Core_0_cycles 25056817
Core_0_IPC 0.39909

Core_0_branch_prediction_accuracy 97.02603
Core_0_branch_MPKI 0.53300
Core_0_average_ROB_occupancy_at_mispredict 241.82214

Core_0_L1D_total_access 2781102
Core_0_L1D_total_hit 1997551
Core_0_L1D_total_miss 783551
Core_0_L1D_loads 978493
Core_0_L1D_load_hit 859687
Core_0_L1D_load_miss 118806
Core_0_L1D_RFOs 1802609
Core_0_L1D_RFO_hit 1137864
Core_0_L1D_RFO_miss 664745
Core_0_L1D_prefetches 0
Core_0_L1D_prefetch_hit 0
Core_0_L1D_prefetch_miss 0
Core_0_L1D_writebacks 0
Core_0_L1D_writeback_hit 0
Core_0_L1D_writeback_miss 0
Core_0_L1D_prefetch_requested 0
Core_0_L1D_prefetch_dropped 0
Core_0_L1D_prefetch_issued 0
Core_0_L1D_prefetch_filled 0
Core_0_L1D_prefetch_useful 0
Core_0_L1D_prefetch_useless 0
Core_0_L1D_prefetch_late 0
Core_0_L1D_average_miss_latency 440.22306

Core_0_L1D_rq_access 2369321
Core_0_L1D_rq_forward 0
Core_0_L1D_rq_merged 1303810
Core_0_L1D_rq_to_cache 995337
Core_0_L1D_rq_full 0

Core_0_L1D_wq_access 1841059
Core_0_L1D_wq_forward 70174
Core_0_L1D_wq_merged 19877
Core_0_L1D_wq_to_cache 1821182
Core_0_L1D_wq_full 100178

Core_0_L1D_pq_access 0
Core_0_L1D_pq_forward 0
Core_0_L1D_pq_merged 0
Core_0_L1D_pq_to_cache 0
Core_0_L1D_pq_full 0

Core_0_L1D_acc_epochs 24168
Core_0_L1D_acc_level_0 24168
Core_0_L1D_acc_level_1 0
Core_0_L1D_acc_level_2 0
Core_0_L1D_acc_level_3 0
Core_0_L1D_acc_level_4 0
Core_0_L1D_acc_level_5 0
Core_0_L1D_acc_level_6 0
Core_0_L1D_acc_level_7 0
Core_0_L1D_acc_level_8 0
Core_0_L1D_acc_level_9 0

Core_0_L1I_total_access 2316920
Core_0_L1I_total_hit 2316920
Core_0_L1I_total_miss 0
Core_0_L1I_loads 2316920
Core_0_L1I_load_hit 2316920
Core_0_L1I_load_miss 0
Core_0_L1I_RFOs 0
Core_0_L1I_RFO_hit 0
Core_0_L1I_RFO_miss 0
Core_0_L1I_prefetches 0
Core_0_L1I_prefetch_hit 0
Core_0_L1I_prefetch_miss 0
Core_0_L1I_writebacks 0
Core_0_L1I_writeback_hit 0
Core_0_L1I_writeback_miss 0
Core_0_L1I_prefetch_requested 0
Core_0_L1I_prefetch_dropped 0
Core_0_L1I_prefetch_issued 0
Core_0_L1I_prefetch_filled 0
Core_0_L1I_prefetch_useful 0
Core_0_L1I_prefetch_useless 0
Core_0_L1I_prefetch_late 0
Core_0_L1I_average_miss_latency -nan

Core_0_L1I_rq_access 10000006
Core_0_L1I_rq_forward 0
Core_0_L1I_rq_merged 7683086
Core_0_L1I_rq_to_cache 2316920
Core_0_L1I_rq_full 0

Core_0_L1I_wq_access 0
Core_0_L1I_wq_forward 0
Core_0_L1I_wq_merged 0
Core_0_L1I_wq_to_cache 0
Core_0_L1I_wq_full 0

Core_0_L1I_pq_access 0
Core_0_L1I_pq_forward 0
Core_0_L1I_pq_merged 0
Core_0_L1I_pq_to_cache 0
Core_0_L1I_pq_full 0

Core_0_L1I_acc_epochs 24168
Core_0_L1I_acc_level_0 24168
Core_0_L1I_acc_level_1 0
Core_0_L1I_acc_level_2 0
Core_0_L1I_acc_level_3 0
Core_0_L1I_acc_level_4 0
Core_0_L1I_acc_level_5 0
Core_0_L1I_acc_level_6 0
Core_0_L1I_acc_level_7 0
Core_0_L1I_acc_level_8 0
Core_0_L1I_acc_level_9 0

Core_0_L2C_total_access 1686917
Core_0_L2C_total_hit 1145759
Core_0_L2C_total_miss 541158
Core_0_L2C_loads 118806
Core_0_L2C_load_hit 89803
Core_0_L2C_load_miss 29003
Core_0_L2C_RFOs 664744
Core_0_L2C_RFO_hit 242537
Core_0_L2C_RFO_miss 422207
Core_0_L2C_prefetches 238622
Core_0_L2C_prefetch_hit 148818
Core_0_L2C_prefetch_miss 89804
Core_0_L2C_writebacks 664745
Core_0_L2C_writeback_hit 664601
Core_0_L2C_writeback_miss 144
Core_0_L2C_prefetch_requested 423305
Core_0_L2C_prefetch_dropped 48
Core_0_L2C_prefetch_issued 423257
Core_0_L2C_prefetch_filled 100914
Core_0_L2C_prefetch_useful 100832
Core_0_L2C_prefetch_useless 77
Core_0_L2C_prefetch_late 20426
Core_0_L2C_average_miss_latency 749.12583

Core_0_L2C_rq_access 783567
Core_0_L2C_rq_forward 0
Core_0_L2C_rq_merged 0
Core_0_L2C_rq_to_cache 783566
Core_0_L2C_rq_full 0

Core_0_L2C_wq_access 664745
Core_0_L2C_wq_forward 1
Core_0_L2C_wq_merged 0
Core_0_L2C_wq_to_cache 664745
Core_0_L2C_wq_full 0

Core_0_L2C_pq_access 423257
Core_0_L2C_pq_forward 0
Core_0_L2C_pq_merged 61849
Core_0_L2C_pq_to_cache 361408
Core_0_L2C_pq_full 0

Core_0_L2C_acc_epochs 24168
Core_0_L2C_acc_level_0 81
Core_0_L2C_acc_level_1 288
Core_0_L2C_acc_level_2 494
Core_0_L2C_acc_level_3 709
Core_0_L2C_acc_level_4 1033
Core_0_L2C_acc_level_5 1388
Core_0_L2C_acc_level_6 1876
Core_0_L2C_acc_level_7 2298
Core_0_L2C_acc_level_8 2489
Core_0_L2C_acc_level_9 13512

Core_0_LLC_total_access 963213
Core_0_LLC_total_hit 242045
Core_0_LLC_total_miss 721168
Core_0_LLC_loads 8591
Core_0_LLC_load_hit 58
Core_0_LLC_load_miss 8533
Core_0_LLC_RFOs 422174
Core_0_LLC_RFO_hit 64651
Core_0_LLC_RFO_miss 357523
Core_0_LLC_prefetches 110216
Core_0_LLC_prefetch_hit 80
Core_0_LLC_prefetch_miss 110136
Core_0_LLC_writebacks 422232
Core_0_LLC_writeback_hit 177256
Core_0_LLC_writeback_miss 244976
Core_0_LLC_prefetch_requested 0
Core_0_LLC_prefetch_dropped 0
Core_0_LLC_prefetch_issued 0
Core_0_LLC_prefetch_filled 121254
Core_0_LLC_prefetch_useful 0
Core_0_LLC_prefetch_useless 120678
Core_0_LLC_prefetch_late 0
Core_0_LLC_average_miss_latency 552.94377

Core_0_LLC_rq_access 430814
Core_0_LLC_rq_forward 0
Core_0_LLC_rq_merged 0
Core_0_LLC_rq_to_cache 430781
Core_0_LLC_rq_full 0

Core_0_LLC_wq_access 422232
Core_0_LLC_wq_forward 33
Core_0_LLC_wq_merged 0
Core_0_LLC_wq_to_cache 422232
Core_0_LLC_wq_full 0

Core_0_LLC_pq_access 121340
Core_0_LLC_pq_forward 0
Core_0_LLC_pq_merged 0
Core_0_LLC_pq_to_cache 121340
Core_0_LLC_pq_full 0

Core_0_LLC_acc_epochs 24885
Core_0_LLC_acc_level_0 24885
Core_0_LLC_acc_level_1 0
Core_0_LLC_acc_level_2 0
Core_0_LLC_acc_level_3 0
Core_0_LLC_acc_level_4 0
Core_0_LLC_acc_level_5 0
Core_0_LLC_acc_level_6 0
Core_0_LLC_acc_level_7 0
Core_0_LLC_acc_level_8 0
Core_0_LLC_acc_level_9 0

Core_0_major_page_fault 0
Core_0_minor_page_fault 7227

scooby_st_lookup 130784
scooby_st_hit 128727
scooby_st_evict 1993
scooby_st_insert 2057
scooby_st_streaming 0

scooby_predict_called 130784
scooby_predict_out_of_bounds 3975
scooby_predict_action_1 67542
scooby_predict_issue_action_1 52242
scooby_predict_hit_action_1 15300
scooby_predict_out_of_bounds_action_1 1131
scooby_predict_action_3 59092
scooby_predict_issue_action_3 49491
scooby_predict_hit_action_3 9601
scooby_predict_out_of_bounds_action_3 2799
scooby_predict_action_4 15
scooby_predict_issue_action_4 15
scooby_predict_hit_action_4 0
scooby_predict_out_of_bounds_action_4 0
scooby_predict_action_5 15
scooby_predict_issue_action_5 15
scooby_predict_hit_action_5 0
scooby_predict_out_of_bounds_action_5 1
scooby_predict_action_10 21
scooby_predict_issue_action_10 21
scooby_predict_hit_action_10 0
scooby_predict_out_of_bounds_action_10 4
scooby_predict_action_11 13
scooby_predict_issue_action_11 13
scooby_predict_hit_action_11 0
scooby_predict_out_of_bounds_action_11 6
scooby_predict_action_12 16
scooby_predict_issue_action_12 16
scooby_predict_hit_action_12 0
scooby_predict_out_of_bounds_action_12 3
scooby_predict_action_22 14
scooby_predict_issue_action_22 14
scooby_predict_hit_action_22 0
scooby_predict_out_of_bounds_action_22 6
scooby_predict_action_23 10
scooby_predict_issue_action_23 10
scooby_predict_hit_action_23 0
scooby_predict_out_of_bounds_action_23 5
scooby_predict_action_30 8
scooby_predict_issue_action_30 8
scooby_predict_hit_action_30 0
scooby_predict_out_of_bounds_action_30 10
scooby_predict_action_32 7
scooby_predict_issue_action_32 7
scooby_predict_hit_action_32 0
scooby_predict_out_of_bounds_action_32 8
scooby_predict_action_-1 17
scooby_predict_issue_action_-1 3
scooby_predict_hit_action_-1 14
scooby_predict_out_of_bounds_action_-1 1
scooby_predict_action_-3 12
scooby_predict_issue_action_-3 6
scooby_predict_hit_action_-3 6
scooby_predict_out_of_bounds_action_-3 0
scooby_predict_action_-6 11
scooby_predict_issue_action_-6 3
scooby_predict_hit_action_-6 8
scooby_predict_out_of_bounds_action_-6 1
scooby_predict_action_0 16
scooby_predict_issue_action_0 0
scooby_predict_hit_action_0 0
scooby_predict_out_of_bounds_action_0 0
scooby_predict_multi_deg_called 88948
scooby_predict_predicted 423305
scooby_predict_multi_deg 321441
scooby_predict_multi_deg_2 85705
scooby_predict_multi_deg_3 74068
scooby_predict_multi_deg_4 70842
scooby_predict_multi_deg_5 47012
scooby_predict_multi_deg_6 43814
scooby_predict_multi_deg_7 0
scooby_predict_multi_deg_8 0
scooby_predict_multi_deg_9 0
scooby_predict_multi_deg_10 0
scooby_predict_multi_deg_11 0
scooby_predict_multi_deg_12 0
scooby_predict_multi_deg_13 0
scooby_predict_multi_deg_14 0
scooby_predict_multi_deg_15 0
scooby_predict_multi_deg_16 0

scooby_selected_deg_1 12916
scooby_selected_deg_2 8405
scooby_selected_deg_3 0
scooby_selected_deg_4 20705
scooby_selected_deg_5 0
scooby_selected_deg_6 59838
scooby_selected_deg_7 0
scooby_selected_deg_8 0
scooby_selected_deg_9 0
scooby_selected_deg_10 0
scooby_selected_deg_11 0
scooby_selected_deg_12 0
scooby_selected_deg_13 0
scooby_selected_deg_14 0
scooby_selected_deg_15 0
scooby_selected_deg_16 0

scooby_state_401cb0|0|0 816,0,0,0,0,0,0,0,0,0,0,0,0,0,0,816,
scooby_state_401cb0|1|0 815,0,0,0,0,1,0,0,0,0,0,0,0,0,0,816,
scooby_state_401cb0|3|3 813,0,0,0,0,0,0,0,0,0,0,0,0,0,0,813,
scooby_state_401cb0|4|4 425,0,0,0,0,0,0,0,0,0,0,0,0,0,0,425,
scooby_state_401cb0|51|3 408,0,0,0,0,0,0,0,0,1,0,0,0,0,0,409,
scooby_state_401cb0|53|3 409,0,0,0,0,0,0,0,0,0,0,0,0,0,0,409,
scooby_state_401cb0|56|4 408,0,0,0,0,1,0,0,0,0,0,0,0,0,0,409,
scooby_state_401cb0|58|3 409,0,0,0,0,0,0,0,0,0,0,0,0,0,0,409,
scooby_state_401cb0|44|3 408,0,0,0,0,0,0,0,0,0,0,0,0,0,0,408,
scooby_state_401cb0|19|3 407,0,0,0,0,0,0,0,0,0,0,0,0,0,1,408,
scooby_state_401cb0|35|3 408,0,0,0,0,0,0,0,0,0,0,0,0,0,0,408,
scooby_state_401cb0|15|3 408,0,0,0,0,0,0,0,0,0,0,0,0,0,0,408,
scooby_state_401cb0|38|4 408,0,0,0,0,0,0,0,0,0,0,0,0,0,0,408,
scooby_state_401cb0|63|4 406,0,0,0,0,0,1,0,0,0,0,0,0,1,0,408,
scooby_state_401cb0|52|4 405,0,0,0,0,0,1,1,0,0,0,0,1,0,0,408,
scooby_state_401cb0|8|3 408,0,0,0,0,0,0,0,0,0,0,0,0,0,0,408,
scooby_state_401cb0|42|3 406,0,0,0,0,0,0,0,0,1,1,0,0,0,0,408,
scooby_state_401cb0|5|3 408,0,0,0,0,0,0,0,0,0,0,0,0,0,0,408,
scooby_state_401cb0|9|3 407,0,0,0,1,0,0,0,0,0,0,0,0,0,0,408,
scooby_state_401cb0|40|4 407,0,0,0,0,0,0,0,0,0,0,1,0,0,0,408,
scooby_state_401cb0|48|3 407,0,0,0,0,0,0,0,0,1,0,0,0,0,0,408,
scooby_state_401cb0|14|4 408,0,0,0,0,0,0,0,0,0,0,0,0,0,0,408,
scooby_state_401cb0|29|4 406,0,0,0,0,0,0,0,1,0,0,1,0,0,0,408,
scooby_state_401cb0|34|3 408,0,0,0,0,0,0,0,0,0,0,0,0,0,0,408,
scooby_state_401cb0|7|4 408,0,0,0,0,0,0,0,0,0,0,0,0,0,0,408,
scooby_state_401cb0|13|3 408,0,0,0,0,0,0,0,0,0,0,0,0,0,0,408,
scooby_state_401cb0|51|4 406,1,0,0,0,0,0,0,1,0,0,0,0,0,0,408,
scooby_state_401cb0|62|4 408,0,0,0,0,0,0,0,0,0,0,0,0,0,0,408,
scooby_state_401cb0|46|4 407,0,0,0,0,1,0,0,0,0,0,0,0,0,0,408,
scooby_state_401cb0|41|4 406,0,0,0,0,1,1,0,0,0,0,0,0,0,0,408,
scooby_state_401cb0|2|0 407,0,0,0,1,0,0,0,0,0,0,0,0,0,0,408,
scooby_state_401cb0|33|3 408,0,0,0,0,0,0,0,0,0,0,0,0,0,0,408,
scooby_state_401cb0|61|4 408,0,0,0,0,0,0,0,0,0,0,0,0,0,0,408,
scooby_state_401cb0|39|3 406,0,0,0,1,0,0,0,0,0,0,1,0,0,0,408,
scooby_state_401cb0|28|3 408,0,0,0,0,0,0,0,0,0,0,0,0,0,0,408,
scooby_state_401cb0|21|4 408,0,0,0,0,0,0,0,0,0,0,0,0,0,0,408,
scooby_state_401cb0|47|3 406,0,0,0,1,0,0,0,1,0,0,0,0,0,0,408,
scooby_state_401cb0|11|4 408,0,0,0,0,0,0,0,0,0,0,0,0,0,0,408,
scooby_state_401cb0|13|4 408,0,0,0,0,0,0,0,0,0,0,0,0,0,0,408,
scooby_state_401cb0|42|4 407,0,0,0,0,0,0,1,0,0,0,0,0,0,0,408,
scooby_state_401cb0|38|3 408,0,0,0,0,0,0,0,0,0,0,0,0,0,0,408,
scooby_state_401cb0|62|3 408,0,0,0,0,0,0,0,0,0,0,0,0,0,0,408,
scooby_state_401cb0|59|3 406,0,0,0,1,0,0,1,0,0,0,0,0,0,0,408,
scooby_state_401cb0|31|3 407,0,0,0,0,0,0,0,0,0,0,0,1,0,0,408,
scooby_state_401cb0|50|4 408,0,0,0,0,0,0,0,0,0,0,0,0,0,0,408,
scooby_state_401cb0|29|3 407,0,0,0,0,0,0,1,0,0,0,0,0,0,0,408,
scooby_state_401cb0|55|3 407,0,0,0,0,1,0,0,0,0,0,0,0,0,0,408,
scooby_state_401cb0|19|4 406,1,0,0,0,0,0,0,0,0,0,0,0,1,0,408,
scooby_state_401cb0|36|3 408,0,0,0,0,0,0,0,0,0,0,0,0,0,0,408,
scooby_state_401cb0|25|4 406,0,0,0,1,0,1,0,0,0,0,0,0,0,0,408,
scooby_state_401cb0|22|3 408,0,0,0,0,0,0,0,0,0,0,0,0,0,0,408,
scooby_state_401cb0|7|3 408,0,0,0,0,0,0,0,0,0,0,0,0,0,0,408,
scooby_state_401cb0|20|4 408,0,0,0,0,0,0,0,0,0,0,0,0,0,0,408,
scooby_state_401cb0|60|3 408,0,0,0,0,0,0,0,0,0,0,0,0,0,0,408,
scooby_state_401cb0|30|3 408,0,0,0,0,0,0,0,0,0,0,0,0,0,0,408,
scooby_state_401cb0|33|4 407,0,0,0,0,0,0,1,0,0,0,0,0,0,0,408,
scooby_state_401cb0|10|4 407,0,0,0,0,0,0,0,0,0,0,0,1,0,0,408,
scooby_state_401cb0|6|3 407,0,0,0,0,0,1,0,0,0,0,0,0,0,0,408,
scooby_state_401cb0|16|3 408,0,0,0,0,0,0,0,0,0,0,0,0,0,0,408,
scooby_state_401cb0|53|4 408,0,0,0,0,0,0,0,0,0,0,0,0,0,0,408,
scooby_state_401cb0|30|4 408,0,0,0,0,0,0,0,0,0,0,0,0,0,0,408,
scooby_state_401cb0|58|4 408,0,0,0,0,0,0,0,0,0,0,0,0,0,0,408,
scooby_state_401cb0|43|4 406,0,0,0,0,0,0,0,0,0,1,0,0,0,1,408,
scooby_state_401cb0|41|3 408,0,0,0,0,0,0,0,0,0,0,0,0,0,0,408,
scooby_state_401cb0|12|3 407,0,0,0,0,0,1,0,0,0,0,0,0,0,0,408,
scooby_state_401cb0|40|3 408,0,0,0,0,0,0,0,0,0,0,0,0,0,0,408,
scooby_state_401cb0|31|4 407,0,0,0,0,0,0,1,0,0,0,0,0,0,0,408,
scooby_state_401cb0|15|4 406,0,1,0,1,0,0,0,0,0,0,0,0,0,0,408,
scooby_state_401cb0|35|4 407,0,0,1,0,0,0,0,0,0,0,0,0,0,0,408,
scooby_state_401cb0|6|4 407,0,0,0,0,0,0,0,0,0,0,1,0,0,0,408,
scooby_state_401cb0|32|3 408,0,0,0,0,0,0,0,0,0,0,0,0,0,0,408,
scooby_state_401cb0|57|4 408,0,0,0,0,0,0,0,0,0,0,0,0,0,0,408,
scooby_state_401cb0|2|2 407,0,1,0,0,0,0,0,0,0,0,0,0,0,0,408,
scooby_state_401cb0|49|4 407,1,0,0,0,0,0,0,0,0,0,0,0,0,0,408,
scooby_state_401cb0|27|3 407,1,0,0,0,0,0,0,0,0,0,0,0,0,0,408,
scooby_state_401cb0|46|3 408,0,0,0,0,0,0,0,0,0,0,0,0,0,0,408,
scooby_state_401cb0|39|4 408,0,0,0,0,0,0,0,0,0,0,0,0,0,0,408,
scooby_state_401cb0|8|4 407,0,0,0,0,0,0,0,0,0,1,0,0,0,0,408,
scooby_state_401cb0|10|3 407,0,0,0,0,1,0,0,0,0,0,0,0,0,0,408,
scooby_state_401cb0|17|3 407,0,0,0,0,0,0,0,0,0,0,0,0,1,0,408,
scooby_state_401cb0|60|4 407,0,0,0,0,0,0,0,0,0,0,1,0,0,0,408,
scooby_state_401cb0|21|3 408,0,0,0,0,0,0,0,0,0,0,0,0,0,0,408,
scooby_state_401cb0|12|4 407,0,0,1,0,0,0,0,0,0,0,0,0,0,0,408,
scooby_state_401cb0|26|3 407,1,0,0,0,0,0,0,0,0,0,0,0,0,0,408,
scooby_state_401cb0|18|4 407,0,0,1,0,0,0,0,0,0,0,0,0,0,0,408,
scooby_state_401cb0|11|3 408,0,0,0,0,0,0,0,0,0,0,0,0,0,0,408,
scooby_state_401cb0|24|4 407,0,0,0,0,0,0,0,1,0,0,0,0,0,0,408,
scooby_state_401cb0|14|3 407,0,0,1,0,0,0,0,0,0,0,0,0,0,0,408,
scooby_state_401cb0|63|3 408,0,0,0,0,0,0,0,0,0,0,0,0,0,0,408,
scooby_state_401cb0|36|4 408,0,0,0,0,0,0,0,0,0,0,0,0,0,0,408,
scooby_state_401cb0|45|4 408,0,0,0,0,0,0,0,0,0,0,0,0,0,0,408,
scooby_state_401cb0|34|4 406,0,0,0,0,1,0,0,1,0,0,0,0,0,0,408,
scooby_state_401cb0|26|4 407,0,0,0,0,0,0,0,1,0,0,0,0,0,0,408,
scooby_state_401cb0|32|4 406,1,0,0,0,0,0,0,0,1,0,0,0,0,0,408,
scooby_state_401cb0|45|3 406,1,0,0,0,0,1,0,0,0,0,0,0,0,0,408,
scooby_state_401cb0|5|4 405,0,0,0,1,0,0,0,0,0,1,0,1,0,0,408,
scooby_state_401cb0|54|3 408,0,0,0,0,0,0,0,0,0,0,0,0,0,0,408,
scooby_state_401cb0|54|4 406,0,0,0,0,1,0,1,0,0,0,0,0,0,0,408,
scooby_state_401cb0|20|3 407,0,1,0,0,0,0,0,0,0,0,0,0,0,0,408,
scooby_state_401cb0|48|4 406,0,0,0,1,0,0,0,0,1,0,0,0,0,0,408,
scooby_state_401cb0|43|3 407,0,0,1,0,0,0,0,0,0,0,0,0,0,0,408,
scooby_state_401cb0|23|3 407,0,0,0,0,0,0,0,0,0,0,0,0,1,0,408,
scooby_state_401cb0|61|3 408,0,0,0,0,0,0,0,0,0,0,0,0,0,0,408,
scooby_state_401cb0|18|3 408,0,0,0,0,0,0,0,0,0,0,0,0,0,0,408,
scooby_state_401cb0|44|4 408,0,0,0,0,0,0,0,0,0,0,0,0,0,0,408,
scooby_state_401cb0|55|4 408,0,0,0,0,0,0,0,0,0,0,0,0,0,0,408,
scooby_state_401cb0|17|4 408,0,0,0,0,0,0,0,0,0,0,0,0,0,0,408,
scooby_state_401cb0|37|3 408,0,0,0,0,0,0,0,0,0,0,0,0,0,0,408,
scooby_state_401cb0|47|4 406,1,0,0,0,0,0,1,0,0,0,0,0,0,0,408,
scooby_state_401cb0|27|4 407,0,0,0,0,1,0,0,0,0,0,0,0,0,0,408,
scooby_state_401cb0|56|3 405,1,0,0,2,0,0,0,0,0,0,0,0,0,0,408,
scooby_state_401cb0|9|4 406,0,0,1,0,0,0,1,0,0,0,0,0,0,0,408,
scooby_state_401cb0|16|4 408,0,0,0,0,0,0,0,0,0,0,0,0,0,0,408,
scooby_state_401cb0|23|4 408,0,0,0,0,0,0,0,0,0,0,0,0,0,0,408,
scooby_state_401cb0|50|3 408,0,0,0,0,0,0,0,0,0,0,0,0,0,0,408,
scooby_state_401cb0|22|4 405,0,0,1,1,0,0,0,0,1,0,0,0,0,0,408,
scooby_state_401cb0|24|3 406,0,0,1,0,0,0,0,0,0,0,0,0,0,1,408,
scooby_state_401cb0|59|4 407,0,0,0,0,0,0,0,0,0,0,0,1,0,0,408,
scooby_state_401cb0|25|3 406,0,2,0,0,0,0,0,0,0,0,0,0,0,0,408,
scooby_state_401cb0|49|3 407,0,0,0,0,0,0,1,0,0,0,0,0,0,0,408,
scooby_state_401cb0|57|3 408,0,0,0,0,0,0,0,0,0,0,0,0,0,0,408,
scooby_state_401cb0|52|3 407,0,0,0,0,1,0,0,0,0,0,0,0,0,0,408,
scooby_state_401cb0|37|4 407,0,0,0,0,0,0,0,0,0,0,0,0,1,0,408,
scooby_state_401cb0|28|4 408,0,0,0,0,0,0,0,0,0,0,0,0,0,0,408,
scooby_state_401cb0|4|3 388,0,0,0,0,0,0,1,0,0,0,0,0,0,0,389,
scooby_state_401e02|6|-2 271,1,0,0,0,0,0,0,0,0,0,0,0,0,0,272,
scooby_state_401e67|7|1 1,270,0,0,0,0,0,0,0,0,0,0,0,0,0,271,
scooby_state_401e02|58|-2 268,0,0,0,1,0,0,0,0,0,0,0,0,0,0,269,
scooby_state_401e33|61|-1 0,269,0,0,0,0,0,0,0,0,0,0,0,0,0,269,
scooby_state_401e02|18|-2 268,0,0,0,0,0,0,0,0,1,0,0,0,0,0,269,
scooby_state_401e02|30|-2 269,0,0,0,0,0,0,0,0,0,0,0,0,0,0,269,
scooby_state_401e67|31|1 0,268,0,0,0,0,0,0,0,0,0,0,0,0,0,268,
scooby_state_401e02|46|-2 267,0,0,0,0,0,0,0,0,0,0,0,0,0,0,267,
scooby_state_401e67|59|1 0,266,0,0,0,0,0,0,0,0,0,1,0,0,0,267,
scooby_state_401e33|1|-1 0,264,0,0,0,0,0,0,0,0,0,0,0,0,0,264,
scooby_state_401e33|25|-1 1,263,0,0,0,0,0,0,0,0,0,0,0,0,0,264,
scooby_state_401e33|21|-1 1,262,0,0,0,0,0,0,1,0,0,0,0,0,0,264,
scooby_state_401e33|49|-1 0,264,0,0,0,0,0,0,0,0,0,0,0,0,0,264,
scooby_state_401e33|9|-1 0,262,0,0,0,0,0,0,0,0,0,0,0,1,0,263,
scooby_state_401e02|62|2 262,0,0,0,0,0,0,0,0,0,1,0,0,0,0,263,
scooby_state_401e67|19|1 0,263,0,0,0,0,0,0,0,0,0,0,0,0,0,263,
scooby_state_401e33|33|-1 0,262,0,0,0,0,0,0,0,0,0,0,0,0,0,262,
scooby_state_401e02|10|-2 260,0,0,0,0,1,0,0,0,0,0,1,0,0,0,262,
scooby_state_401e33|41|-1 0,260,1,0,0,0,0,0,0,1,0,0,0,0,0,262,
scooby_state_401e67|47|1 0,261,0,0,0,0,0,0,0,0,0,0,0,0,0,261,
scooby_state_401e67|11|1 1,260,0,0,0,0,0,0,0,0,0,0,0,0,0,261,
scooby_state_401e33|17|-1 0,261,0,0,0,0,0,0,0,0,0,0,0,0,0,261,
scooby_state_401e67|63|1 0,260,0,0,0,0,0,0,0,0,0,0,0,0,1,261,
scooby_state_401e33|56|-1 0,261,0,0,0,0,0,0,0,0,0,0,0,0,0,261,
scooby_state_401e33|45|-1 0,260,0,0,0,0,0,0,0,0,0,0,0,0,0,260,
scooby_state_401e02|38|-2 259,0,0,0,0,0,0,0,0,0,0,0,0,1,0,260,
scooby_state_401e02|48|-2 260,0,0,0,0,0,0,0,0,0,0,0,0,0,0,260,
scooby_state_401e02|54|-2 259,0,0,0,0,0,0,0,0,0,0,0,0,0,0,259,
scooby_state_401e67|49|1 0,258,0,0,0,0,0,0,1,0,0,0,0,0,0,259,
scooby_state_401e02|34|-2 258,0,0,0,1,0,0,0,0,0,0,0,0,0,0,259,
scooby_state_401e33|27|-1 0,259,0,0,0,0,0,0,0,0,0,0,0,0,0,259,
scooby_state_401e33|53|-1 0,258,0,0,0,0,0,0,0,0,1,0,0,0,0,259,
scooby_state_401e33|29|-1 1,258,0,0,0,0,0,0,0,0,0,0,0,0,0,259,
scooby_state_401e67|39|1 0,258,0,0,0,0,0,0,0,0,0,0,0,0,0,258,
scooby_state_401e02|26|-2 258,0,0,0,0,0,0,0,0,0,0,0,0,0,0,258,
scooby_state_401e02|36|-2 257,0,0,0,0,0,0,0,0,0,0,0,0,0,0,257,
scooby_state_401e02|2|-2 257,0,0,0,0,0,0,0,0,0,0,0,0,0,0,257,
scooby_state_401e33|57|-1 1,255,0,0,0,0,0,0,0,0,0,0,0,0,1,257,
scooby_state_401e67|3|1 1,255,0,0,0,0,0,0,0,0,1,0,0,0,0,257,
scooby_state_401e33|13|-1 1,255,0,0,0,0,0,0,0,0,1,0,0,0,0,257,
scooby_state_401e67|60|1 1,255,0,0,0,0,0,0,0,0,0,0,0,0,0,256,
scooby_state_401e02|42|-2 254,0,0,0,0,0,0,0,0,0,0,1,0,0,1,256,
scooby_state_401e02|22|-2 256,0,0,0,0,0,0,0,0,0,0,0,0,0,0,256,
scooby_state_401e02|59|-2 256,0,0,0,0,0,0,0,0,0,0,0,0,0,0,256,
scooby_state_401e67|55|1 1,254,0,0,0,1,0,0,0,0,0,0,0,0,0,256,
scooby_state_401e33|58|-1 0,254,0,0,0,0,1,0,0,0,0,0,0,0,0,255,
scooby_state_401e33|37|-1 0,254,0,0,1,0,0,0,0,0,0,0,0,0,0,255,
scooby_state_401e02|47|-2 255,0,0,0,0,0,0,0,0,0,0,0,0,0,0,255,
scooby_state_401e33|62|-1 1,254,0,0,0,0,0,0,0,0,0,0,0,0,0,255,
scooby_state_401e67|37|1 1,254,0,0,0,0,0,0,0,0,0,0,0,0,0,255,
scooby_state_401e33|5|-1 1,253,0,0,0,0,0,0,0,0,0,0,0,1,0,255,
scooby_state_401e67|35|1 0,255,0,0,0,0,0,0,0,0,0,0,0,0,0,255,
scooby_state_401e33|51|-1 0,255,0,0,0,0,0,0,0,0,0,0,0,0,0,255,
scooby_state_401e02|24|-2 254,0,0,0,0,0,0,0,0,0,0,0,0,0,0,254,
scooby_state_401e02|12|-2 254,0,0,0,0,0,0,0,0,0,0,0,0,0,0,254,
scooby_state_401e33|63|2 1,253,0,0,0,0,0,0,0,0,0,0,0,0,0,254,
scooby_state_401e67|27|1 1,252,0,1,0,0,0,0,0,0,0,0,0,0,0,254,
scooby_state_401e67|43|1 0,254,0,0,0,0,0,0,0,0,0,0,0,0,0,254,
scooby_state_401e33|30|-1 1,252,0,0,0,0,0,0,0,0,0,0,0,0,0,253,
scooby_state_401e33|26|-1 0,253,0,0,0,0,0,0,0,0,0,0,0,0,0,253,
scooby_state_401e33|10|-1 1,252,0,0,0,0,0,0,0,0,0,0,0,0,0,253,
scooby_state_401e67|23|1 1,252,0,0,0,0,0,0,0,0,0,0,0,0,0,253,
scooby_state_401e33|39|-1 1,252,0,0,0,0,0,0,0,0,0,0,0,0,0,253,
scooby_state_401e02|50|-2 252,0,0,0,0,0,0,0,0,0,0,0,0,0,0,252,
scooby_state_401e02|14|-2 252,0,0,0,0,0,0,0,0,0,0,0,0,0,0,252,
scooby_state_401e02|8|-2 252,0,0,0,0,0,0,0,0,0,0,0,0,0,0,252,
scooby_state_401e02|60|-2 250,0,0,0,0,0,0,0,0,0,0,1,0,0,1,252,
scooby_state_401e02|16|-2 251,0,0,0,0,0,0,0,0,0,0,0,1,0,0,252,
scooby_state_401e02|7|-2 251,0,0,0,0,0,1,0,0,0,0,0,0,0,0,252,
scooby_state_401e67|48|1 0,251,0,0,0,0,0,0,0,0,0,0,0,0,0,251,
scooby_state_401e67|25|1 0,251,0,0,0,0,0,0,0,0,0,0,0,0,0,251,
scooby_state_401e02|40|-2 250,0,0,0,0,0,0,0,0,0,0,1,0,0,0,251,
scooby_state_401e67|4|1 1,250,0,0,0,0,0,0,0,0,0,0,0,0,0,251,
scooby_state_401e02|63|2 250,0,0,0,0,0,0,0,0,0,0,0,0,0,0,250,
scooby_state_401e67|13|1 1,249,0,0,0,0,0,0,0,0,0,0,0,0,0,250,
scooby_state_401e02|28|-2 250,0,0,0,0,0,0,0,0,0,0,0,0,0,0,250,
scooby_state_401e33|4|-1 1,248,0,0,0,0,0,0,0,0,0,0,0,0,0,249,
scooby_state_401e02|55|-2 249,0,0,0,0,0,0,0,0,0,0,0,0,0,0,249,
scooby_state_401e33|11|-1 1,248,0,0,0,0,0,0,0,0,0,0,0,0,0,249,
scooby_state_401e67|51|1 0,249,0,0,0,0,0,0,0,0,0,0,0,0,0,249,
scooby_state_401e02|3|-2 249,0,0,0,0,0,0,0,0,0,0,0,0,0,0,249,
scooby_state_401e33|50|-1 0,249,0,0,0,0,0,0,0,0,0,0,0,0,0,249,
scooby_state_401e02|11|-2 248,0,0,0,0,0,0,0,0,0,0,1,0,0,0,249,
scooby_state_401e02|53|-2 249,0,0,0,0,0,0,0,0,0,0,0,0,0,0,249,
scooby_state_401e02|20|-2 249,0,0,0,0,0,0,0,0,0,0,0,0,0,0,249,
scooby_state_401e33|6|-1 1,245,0,0,0,0,0,1,0,1,0,0,0,0,0,248,
scooby_state_401e33|38|-1 0,247,0,0,0,0,0,0,0,1,0,0,0,0,0,248,
scooby_state_401e33|15|-1 1,247,0,0,0,0,0,0,0,0,0,0,0,0,0,248,
scooby_state_401e67|12|1 0,247,0,0,0,0,0,0,0,0,1,0,0,0,0,248,
scooby_state_401e67|9|1 1,247,0,0,0,0,0,0,0,0,0,0,0,0,0,248,
scooby_state_401e67|29|1 0,247,0,0,0,1,0,0,0,0,0,0,0,0,0,248,
scooby_state_401e67|41|1 0,248,0,0,0,0,0,0,0,0,0,0,0,0,0,248,
scooby_state_401e67|61|1 1,247,0,0,0,0,0,0,0,0,0,0,0,0,0,248,
scooby_state_401e02|27|-2 248,0,0,0,0,0,0,0,0,0,0,0,0,0,0,248,
scooby_state_401e67|28|1 1,246,0,0,0,0,0,0,0,0,0,0,0,0,0,247,
scooby_state_401e33|19|-1 0,247,0,0,0,0,0,0,0,0,0,0,0,0,0,247,
scooby_state_401e67|54|1 0,247,0,0,0,0,0,0,0,0,0,0,0,0,0,247,
scooby_state_401e33|46|-1 0,247,0,0,0,0,0,0,0,0,0,0,0,0,0,247,
scooby_state_401e02|35|-2 246,1,0,0,0,0,0,0,0,0,0,0,0,0,0,247,
scooby_state_401e67|21|1 1,246,0,0,0,0,0,0,0,0,0,0,0,0,0,247,
scooby_state_401e67|56|1 0,247,0,0,0,0,0,0,0,0,0,0,0,0,0,247,
scooby_state_401e02|23|-2 246,0,0,0,0,0,0,0,0,0,0,0,0,0,0,246,
scooby_state_401e02|15|-2 245,0,0,0,0,0,0,1,0,0,0,0,0,0,0,246,
scooby_state_401e67|8|1 1,245,0,0,0,0,0,0,0,0,0,0,0,0,0,246,
scooby_state_401e67|2|1 1,245,0,0,0,0,0,0,0,0,0,0,0,0,0,246,
scooby_state_401e67|17|1 0,245,0,0,1,0,0,0,0,0,0,0,0,0,0,246,
scooby_state_401e33|18|-1 1,244,0,0,0,0,0,0,0,0,0,0,0,0,0,245,
scooby_state_401e02|1|-2 244,0,0,0,0,1,0,0,0,0,0,0,0,0,0,245,
scooby_state_401e02|41|-2 243,0,0,0,0,0,0,2,0,0,0,0,0,0,0,245,
scooby_state_401e33|24|-1 0,245,0,0,0,0,0,0,0,0,0,0,0,0,0,245,
scooby_state_401e67|44|1 0,245,0,0,0,0,0,0,0,0,0,0,0,0,0,245,
scooby_state_401e02|43|-2 245,0,0,0,0,0,0,0,0,0,0,0,0,0,0,245,
scooby_state_401e33|22|-1 0,245,0,0,0,0,0,0,0,0,0,0,0,0,0,245,
scooby_state_401e67|20|1 0,244,0,0,0,0,0,0,0,0,0,0,0,0,0,244,
scooby_state_401e33|28|-1 1,242,1,0,0,0,0,0,0,0,0,0,0,0,0,244,
scooby_state_401e33|16|-1 1,242,0,0,0,0,0,0,0,0,0,1,0,0,0,244,
scooby_state_401e67|24|1 0,244,0,0,0,0,0,0,0,0,0,0,0,0,0,244,
scooby_state_401e33|14|-1 0,243,0,0,0,0,0,0,0,1,0,0,0,0,0,244,
scooby_state_401e02|32|-2 244,0,0,0,0,0,0,0,0,0,0,0,0,0,0,244,
scooby_state_401e33|40|-1 0,244,0,0,0,0,0,0,0,0,0,0,0,0,0,244,
scooby_state_401e33|35|-1 1,242,0,0,1,0,0,0,0,0,0,0,0,0,0,244,
scooby_state_401e02|33|-2 243,0,0,0,0,0,0,0,0,0,0,0,0,0,0,243,
scooby_state_401e02|19|-2 243,0,0,0,0,0,0,0,0,0,0,0,0,0,0,243,
scooby_state_401e02|52|-2 243,0,0,0,0,0,0,0,0,0,0,0,0,0,0,243,
scooby_state_401e67|42|1 1,241,0,0,1,0,0,0,0,0,0,0,0,0,0,243,
scooby_state_401e33|34|-1 1,241,1,0,0,0,0,0,0,0,0,0,0,0,0,243,
scooby_state_401e67|36|1 0,242,0,0,0,0,1,0,0,0,0,0,0,0,0,243,
scooby_state_401e67|53|1 0,242,0,0,0,0,0,0,0,0,0,0,0,0,0,242,
scooby_state_401e33|32|-1 0,242,0,0,0,0,0,0,0,0,0,0,0,0,0,242,
scooby_state_401e33|20|-1 1,238,0,0,0,0,0,0,0,1,1,0,0,1,0,242,
scooby_state_401e02|29|-2 242,0,0,0,0,0,0,0,0,0,0,0,0,0,0,242,
scooby_state_401e02|25|-2 242,0,0,0,0,0,0,0,0,0,0,0,0,0,0,242,
scooby_state_401e67|30|1 0,242,0,0,0,0,0,0,0,0,0,0,0,0,0,242,
scooby_state_401e02|31|-2 242,0,0,0,0,0,0,0,0,0,0,0,0,0,0,242,
scooby_state_401e67|32|1 1,239,1,0,0,0,1,0,0,0,0,0,0,0,0,242,
scooby_state_401e02|4|-2 241,0,0,0,0,0,0,0,0,0,0,0,0,0,0,241,
scooby_state_401e67|15|1 0,241,0,0,0,0,0,0,0,0,0,0,0,0,0,241,
scooby_state_401e33|31|-1 0,241,0,0,0,0,0,0,0,0,0,0,0,0,0,241,
scooby_state_401e67|26|1 1,240,0,0,0,0,0,0,0,0,0,0,0,0,0,241,
scooby_state_401e33|8|-1 1,240,0,0,0,0,0,0,0,0,0,0,0,0,0,241,
scooby_state_401e02|13|-2 239,0,1,0,0,0,0,0,0,0,0,0,0,0,0,240,
scooby_state_401e67|16|1 1,239,0,0,0,0,0,0,0,0,0,0,0,0,0,240,
scooby_state_401e02|45|-2 239,1,0,0,0,0,0,0,0,0,0,0,0,0,0,240,
scooby_state_401e67|1|1 1,239,0,0,0,0,0,0,0,0,0,0,0,0,0,240,
scooby_state_401e67|33|1 1,238,0,0,0,0,0,1,0,0,0,0,0,0,0,240,
scooby_state_401e67|0|-1 1,239,0,0,0,0,0,0,0,0,0,0,0,0,0,240,
scooby_state_401e02|44|-2 240,0,0,0,0,0,0,0,0,0,0,0,0,0,0,240,
scooby_state_401e02|39|-2 240,0,0,0,0,0,0,0,0,0,0,0,0,0,0,240,
scooby_state_401e02|17|-2 240,0,0,0,0,0,0,0,0,0,0,0,0,0,0,240,
scooby_state_401e67|18|1 1,238,0,0,0,0,0,0,0,0,0,0,0,0,0,239,
scooby_state_401e33|48|-1 0,239,0,0,0,0,0,0,0,0,0,0,0,0,0,239,
scooby_state_401e02|21|-2 239,0,0,0,0,0,0,0,0,0,0,0,0,0,0,239,
scooby_state_401e33|23|-1 1,237,0,0,0,0,0,0,0,1,0,0,0,0,0,239,
scooby_state_401e67|45|1 0,238,0,0,0,0,0,0,0,0,0,0,0,0,0,238,
scooby_state_401e67|6|1 0,237,0,1,0,0,0,0,0,0,0,0,0,0,0,238,
scooby_state_401e02|37|-2 238,0,0,0,0,0,0,0,0,0,0,0,0,0,0,238,
scooby_state_401e67|52|1 0,238,0,0,0,0,0,0,0,0,0,0,0,0,0,238,
scooby_state_401e02|51|-2 238,0,0,0,0,0,0,0,0,0,0,0,0,0,0,238,
scooby_state_401e67|34|1 0,238,0,0,0,0,0,0,0,0,0,0,0,0,0,238,
scooby_state_401e67|22|1 0,237,0,1,0,0,0,0,0,0,0,0,0,0,0,238,
scooby_state_401e02|5|-2 238,0,0,0,0,0,0,0,0,0,0,0,0,0,0,238,
scooby_state_401e67|5|1 0,238,0,0,0,0,0,0,0,0,0,0,0,0,0,238,
scooby_state_401e02|49|-2 235,0,0,0,0,0,0,0,0,1,0,0,0,0,1,237,
scooby_state_401e33|43|-1 0,237,0,0,0,0,0,0,0,0,0,0,0,0,0,237,
scooby_state_401e67|14|1 0,237,0,0,0,0,0,0,0,0,0,0,0,0,0,237,
scooby_state_401e33|55|-1 0,237,0,0,0,0,0,0,0,0,0,0,0,0,0,237,
scooby_state_401e33|44|-1 0,237,0,0,0,0,0,0,0,0,0,0,0,0,0,237,
scooby_state_401e33|52|-1 1,235,0,0,0,0,0,0,0,0,0,0,0,1,0,237,
scooby_state_401e02|56|-2 236,0,0,0,0,0,0,0,0,0,0,0,0,0,0,236,
scooby_state_401e33|2|-1 0,235,0,0,1,0,0,0,0,0,0,0,0,0,0,236,
scooby_state_401e33|42|-1 0,236,0,0,0,0,0,0,0,0,0,0,0,0,0,236,
scooby_state_401e67|40|1 0,235,0,0,1,0,0,0,0,0,0,0,0,0,0,236,
scooby_state_401e67|57|1 0,235,0,0,0,0,0,0,0,0,0,0,0,0,0,235,
scooby_state_401e67|46|1 0,234,0,0,0,0,0,0,1,0,0,0,0,0,0,235,
scooby_state_401e67|50|1 1,233,0,0,0,1,0,0,0,0,0,0,0,0,0,235,
scooby_state_401e33|3|-1 0,232,0,0,0,0,0,0,0,0,0,0,2,0,1,235,
scooby_state_401e67|38|1 0,233,0,0,0,0,0,0,1,0,0,0,0,0,0,234,
scooby_state_401e02|9|-2 232,0,1,0,0,0,0,0,0,0,0,0,0,0,0,233,
scooby_state_401e33|60|-1 0,233,0,0,0,0,0,0,0,0,0,0,0,0,0,233,
scooby_state_401e33|36|-1 0,232,0,0,0,0,0,0,0,0,0,0,1,0,0,233,
scooby_state_401e02|61|-2 232,0,0,0,0,0,0,0,0,0,0,0,0,0,0,232,
scooby_state_401e67|58|1 0,232,0,0,0,0,0,0,0,0,0,0,0,0,0,232,
scooby_state_401e02|57|-2 231,0,0,0,0,0,0,0,0,0,0,0,0,1,0,232,
scooby_state_401e33|54|-1 0,229,0,1,0,0,0,0,0,0,1,0,0,0,0,231,
scooby_state_401e67|62|1 1,229,0,0,0,0,0,0,0,0,0,1,0,0,0,231,
scooby_state_401e33|47|-1 0,231,0,0,0,0,0,0,0,0,0,0,0,0,0,231,
scooby_state_401e67|10|1 0,231,0,0,0,0,0,0,0,0,0,0,0,0,0,231,
scooby_state_401e33|7|-1 0,230,0,0,0,0,0,0,1,0,0,0,0,0,0,231,
scooby_state_401e33|59|-1 1,226,0,0,0,0,0,0,0,1,1,0,0,0,0,229,
scooby_state_401e33|12|-1 0,227,0,1,0,0,0,0,0,0,0,0,0,0,0,228,
scooby_state_401e33|0|-1 1,226,0,0,0,0,0,0,0,0,0,0,0,0,0,227,
scooby_state_401e02|0|-2 225,0,0,0,0,0,0,0,0,0,0,0,0,0,1,226,
scooby_state_401d14|12|-1 0,177,0,0,0,0,0,0,0,0,0,0,0,0,0,177,
scooby_state_401d14|7|-1 0,177,0,0,0,0,0,0,0,0,0,0,0,0,0,177,
scooby_state_401d43|62|1 0,176,0,0,0,0,0,0,0,0,0,0,0,0,0,176,
scooby_state_401d43|58|1 1,175,0,0,0,0,0,0,0,0,0,0,0,0,0,176,
scooby_state_401d14|59|-1 0,176,0,0,0,0,0,0,0,0,0,0,0,0,0,176,
scooby_state_401cdb|61|-2 0,176,0,0,0,0,0,0,0,0,0,0,0,0,0,176,
scooby_state_401cdb|57|-2 2,173,0,1,0,0,0,0,0,0,0,0,0,0,0,176,
scooby_state_401d43|10|1 0,175,0,0,0,0,0,0,0,0,0,0,0,0,0,175,
scooby_state_401cdb|9|-2 1,174,0,0,0,0,0,0,0,0,0,0,0,0,0,175,
scooby_state_401d14|54|-1 1,173,0,0,0,0,0,0,0,0,0,0,0,0,0,174,
scooby_state_401d14|36|-1 0,172,0,0,1,0,0,0,0,0,0,0,0,0,0,173,
scooby_state_401d14|47|-1 1,172,0,0,0,0,0,0,0,0,0,0,0,0,0,173,
scooby_state_401d43|50|1 1,171,0,0,0,0,0,0,0,0,0,0,0,0,0,172,
scooby_state_401d43|57|1 1,171,0,0,0,0,0,0,0,0,0,0,0,0,0,172,
scooby_state_401cdb|49|-2 1,170,0,0,0,0,1,0,0,0,0,0,0,0,0,172,
scooby_state_401cdb|56|-2 1,171,0,0,0,0,0,0,0,0,0,0,0,0,0,172,
scooby_state_401d14|60|-1 1,170,0,0,0,0,0,0,0,0,0,0,0,0,0,171,
scooby_state_401d43|6|1 1,169,0,0,0,0,0,0,0,0,0,0,0,0,0,170,
scooby_state_401d43|38|1 1,169,0,0,0,0,0,0,0,0,0,0,0,0,0,170,
scooby_state_401cdb|37|-2 2,168,0,0,0,0,0,0,0,0,0,0,0,0,0,170,
scooby_state_401cdb|5|-2 1,169,0,0,0,0,0,0,0,0,0,0,0,0,0,170,
scooby_state_401cdb|21|-2 2,166,0,0,0,0,0,0,0,0,1,0,0,0,0,169,
scooby_state_401cdb|51|-2 1,168,0,0,0,0,0,0,0,0,0,0,0,0,0,169,
scooby_state_401d43|22|1 1,168,0,0,0,0,0,0,0,0,0,0,0,0,0,169,
scooby_state_401d14|42|-1 1,168,0,0,0,0,0,0,0,0,0,0,0,0,0,169,
scooby_state_401d14|43|-1 2,167,0,0,0,0,0,0,0,0,0,0,0,0,0,169,
scooby_state_401d43|52|1 2,166,0,0,0,0,0,0,0,1,0,0,0,0,0,169,
scooby_state_401d14|3|-1 1,167,0,0,0,0,0,0,1,0,0,0,0,0,0,169,
scooby_state_401d14|52|-1 0,168,0,0,0,0,0,0,0,0,0,0,0,0,0,168,
scooby_state_401cdb|45|-2 3,165,0,0,0,0,0,0,0,0,0,0,0,0,0,168,
scooby_state_401cdb|44|-2 2,165,0,0,0,0,1,0,0,0,0,0,0,0,0,168,
scooby_state_401d43|18|1 0,168,0,0,0,0,0,0,0,0,0,0,0,0,0,168,
scooby_state_401cdb|17|-2 0,168,0,0,0,0,0,0,0,0,0,0,0,0,0,168,
scooby_state_401cdb|39|-2 3,165,0,0,0,0,0,0,0,0,0,0,0,0,0,168,
scooby_state_401cdb|13|-2 0,167,0,0,0,0,0,0,0,0,0,0,1,0,0,168,
scooby_state_401d43|45|1 1,167,0,0,0,0,0,0,0,0,0,0,0,0,0,168,
scooby_state_401d14|55|-1 1,167,0,0,0,0,0,0,0,0,0,0,0,0,0,168,
scooby_state_401d43|14|1 0,168,0,0,0,0,0,0,0,0,0,0,0,0,0,168,
scooby_state_401d43|46|1 1,167,0,0,0,0,0,0,0,0,0,0,0,0,0,168,
scooby_state_401d14|2|-1 0,168,0,0,0,0,0,0,0,0,0,0,0,0,0,168,
scooby_state_401d14|44|-1 1,166,0,0,0,0,0,0,0,0,0,0,0,0,0,167,
scooby_state_401d43|40|1 0,167,0,0,0,0,0,0,0,0,0,0,0,0,0,167,
scooby_state_401cdb|25|-2 1,164,0,0,0,0,0,1,0,0,0,0,0,0,0,166,
scooby_state_401d43|53|1 2,164,0,0,0,0,0,0,0,0,0,0,0,0,0,166,
scooby_state_401d43|32|1 0,165,0,0,0,0,0,0,0,0,1,0,0,0,0,166,
scooby_state_401cdb|31|-2 0,166,0,0,0,0,0,0,0,0,0,0,0,0,0,166,
scooby_state_401d43|26|1 0,166,0,0,0,0,0,0,0,0,0,0,0,0,0,166,
scooby_state_401d14|31|-1 0,166,0,0,0,0,0,0,0,0,0,0,0,0,0,166,
scooby_state_401d43|30|1 0,166,0,0,0,0,0,0,0,0,0,0,0,0,0,166,
scooby_state_401cdb|4|-2 2,164,0,0,0,0,0,0,0,0,0,0,0,0,0,166,
scooby_state_401cdb|29|-2 0,166,0,0,0,0,0,0,0,0,0,0,0,0,0,166,
scooby_state_401d14|23|-1 0,166,0,0,0,0,0,0,0,0,0,0,0,0,0,166,
scooby_state_401d43|5|1 0,166,0,0,0,0,0,0,0,0,0,0,0,0,0,166,
scooby_state_401d14|48|-1 1,164,0,0,0,0,0,0,0,0,0,0,0,0,0,165,
scooby_state_401cdb|33|-2 1,164,0,0,0,0,0,0,0,0,0,0,0,0,0,165,
scooby_state_401cdb|52|-2 1,164,0,0,0,0,0,0,0,0,0,0,0,0,0,165,
scooby_state_401d43|33|1 0,164,0,0,0,0,0,0,0,0,0,0,0,0,0,164,
scooby_state_401d14|8|-1 0,164,0,0,0,0,0,0,0,0,0,0,0,0,0,164,
scooby_state_401cdb|32|-2 1,163,0,0,0,0,0,0,0,0,0,0,0,0,0,164,
scooby_state_401d14|40|-1 1,163,0,0,0,0,0,0,0,0,0,0,0,0,0,164,
scooby_state_401d43|34|1 0,164,0,0,0,0,0,0,0,0,0,0,0,0,0,164,
scooby_state_401d14|16|-1 0,162,0,0,0,0,0,0,0,0,0,0,1,0,0,163,
scooby_state_401d43|42|1 0,163,0,0,0,0,0,0,0,0,0,0,0,0,0,163,
scooby_state_401cdb|43|-2 2,161,0,0,0,0,0,0,0,0,0,0,0,0,0,163,
scooby_state_401d43|20|1 2,161,0,0,0,0,0,0,0,0,0,0,0,0,0,163,
scooby_state_401d43|44|1 0,163,0,0,0,0,0,0,0,0,0,0,0,0,0,163,
scooby_state_401d14|35|-1 0,163,0,0,0,0,0,0,0,0,0,0,0,0,0,163,
scooby_state_401cdb|19|-2 1,161,0,0,0,0,0,0,0,0,0,1,0,0,0,163,
scooby_state_401cdb|41|-2 0,163,0,0,0,0,0,0,0,0,0,0,0,0,0,163,
scooby_state_401d14|20|-1 0,163,0,0,0,0,0,0,0,0,0,0,0,0,0,163,
scooby_state_401d14|28|-1 0,163,0,0,0,0,0,0,0,0,0,0,0,0,0,163,
scooby_state_401cdb|15|-2 0,161,0,0,0,0,0,0,1,0,0,0,0,0,0,162,
scooby_state_401d43|16|1 0,162,0,0,0,0,0,0,0,0,0,0,0,0,0,162,
scooby_state_401d43|24|1 0,162,0,0,0,0,0,0,0,0,0,0,0,0,0,162,
scooby_state_401cdb|23|-2 1,161,0,0,0,0,0,0,0,0,0,0,0,0,0,162,
scooby_state_401d14|32|-1 0,162,0,0,0,0,0,0,0,0,0,0,0,0,0,162,
scooby_state_401d14|14|-1 1,160,0,0,0,0,0,0,0,0,0,0,0,0,0,161,
scooby_state_401d14|22|-1 1,160,0,0,0,0,0,0,0,0,0,0,0,0,0,161,
scooby_state_401d14|19|-1 1,160,0,0,0,0,0,0,0,0,0,0,0,0,0,161,
scooby_state_401d14|24|-1 1,160,0,0,0,0,0,0,0,0,0,0,0,0,0,161,
scooby_state_401cdb|35|-2 2,158,0,0,1,0,0,0,0,0,0,0,0,0,0,161,
scooby_state_401d43|36|1 1,160,0,0,0,0,0,0,0,0,0,0,0,0,0,161,
scooby_state_401d14|18|-1 0,161,0,0,0,0,0,0,0,0,0,0,0,0,0,161,
scooby_state_401cdb|27|-2 0,159,0,0,0,0,0,0,0,1,0,0,0,0,0,160,
scooby_state_401d14|46|-1 0,160,0,0,0,0,0,0,0,0,0,0,0,0,0,160,
scooby_state_401d43|28|1 0,160,0,0,0,0,0,0,0,0,0,0,0,0,0,160,
scooby_state_401d14|34|-1 0,160,0,0,0,0,0,0,0,0,0,0,0,0,0,160,
scooby_state_401d43|2|1 0,158,0,0,0,0,0,1,0,0,0,0,0,0,0,159,
scooby_state_401cdb|55|-2 3,156,0,0,0,0,0,0,0,0,0,0,0,0,0,159,
scooby_state_401d43|54|1 0,159,0,0,0,0,0,0,0,0,0,0,0,0,0,159,
scooby_state_401cdb|53|-2 0,159,0,0,0,0,0,0,0,0,0,0,0,0,0,159,
scooby_state_401cdb|11|-2 4,154,1,0,0,0,0,0,0,0,0,0,0,0,0,159,
scooby_state_401d14|0|-1 0,159,0,0,0,0,0,0,0,0,0,0,0,0,0,159,
scooby_state_401d14|11|-1 0,159,0,0,0,0,0,0,0,0,0,0,0,0,0,159,
scooby_state_401d43|12|1 1,157,0,0,0,0,0,1,0,0,0,0,0,0,0,159,
scooby_state_401cdb|1|-2 1,157,0,0,0,0,0,0,0,0,0,1,0,0,0,159,
scooby_state_401d43|56|1 1,158,0,0,0,0,0,0,0,0,0,0,0,0,0,159,
scooby_state_401d14|15|-1 0,158,0,0,0,0,0,0,0,0,0,0,0,0,0,158,
scooby_state_401cdb|28|-2 2,156,0,0,0,0,0,0,0,0,0,0,0,0,0,158,
scooby_state_401d43|29|1 1,157,0,0,0,0,0,0,0,0,0,0,0,0,0,158,
scooby_state_401cdb|20|-2 0,158,0,0,0,0,0,0,0,0,0,0,0,0,0,158,
scooby_state_401d43|21|1 0,158,0,0,0,0,0,0,0,0,0,0,0,0,0,158,
scooby_state_401d14|4|-1 0,158,0,0,0,0,0,0,0,0,0,0,0,0,0,158,
scooby_state_401d43|41|1 1,154,0,0,0,0,0,1,0,0,0,0,0,1,0,157,
scooby_state_401d43|4|1 0,157,0,0,0,0,0,0,0,0,0,0,0,0,0,157,
scooby_state_401cdb|40|-2 2,154,0,0,0,0,1,0,0,0,0,0,0,0,0,157,
scooby_state_401d14|38|-1 1,156,0,0,0,0,0,0,0,0,0,0,0,0,0,157,
scooby_state_401cdb|63|2 59,98,0,0,0,0,0,0,0,0,0,0,0,0,0,157,
scooby_state_401cdb|3|-2 0,157,0,0,0,0,0,0,0,0,0,0,0,0,0,157,
scooby_state_401cdb|16|-2 3,153,0,0,0,0,0,0,0,0,0,0,0,0,0,156,
scooby_state_401d43|15|1 1,155,0,0,0,0,0,0,0,0,0,0,0,0,0,156,
scooby_state_401cdb|8|-2 0,156,0,0,0,0,0,0,0,0,0,0,0,0,0,156,
scooby_state_401cdb|14|-2 2,154,0,0,0,0,0,0,0,0,0,0,0,0,0,156,
scooby_state_401cdb|7|-2 1,155,0,0,0,0,0,0,0,0,0,0,0,0,0,156,
scooby_state_401d14|6|-1 0,156,0,0,0,0,0,0,0,0,0,0,0,0,0,156,
scooby_state_401d14|50|-1 1,155,0,0,0,0,0,0,0,0,0,0,0,0,0,156,
scooby_state_401cdb|50|-2 3,151,0,0,0,1,1,0,0,0,0,0,0,0,0,156,
scooby_state_401d43|61|1 0,156,0,0,0,0,0,0,0,0,0,0,0,0,0,156,
scooby_state_401cdb|60|-2 1,154,0,1,0,0,0,0,0,0,0,0,0,0,0,156,
scooby_state_401d43|17|1 1,155,0,0,0,0,0,0,0,0,0,0,0,0,0,156,
scooby_state_401d43|51|1 1,154,0,0,0,0,1,0,0,0,0,0,0,0,0,156,
scooby_state_401d43|9|1 0,156,0,0,0,0,0,0,0,0,0,0,0,0,0,156,
scooby_state_401d43|8|1 0,155,0,0,0,0,0,0,0,0,0,0,0,0,1,156,
scooby_state_401d43|25|1 1,153,0,0,0,0,0,0,0,0,0,0,0,0,0,154,
scooby_state_401cdb|12|-2 0,154,0,0,0,0,0,0,0,0,0,0,0,0,0,154,
scooby_state_401d43|13|1 0,153,0,1,0,0,0,0,0,0,0,0,0,0,0,154,
scooby_state_401d14|30|-1 0,154,0,0,0,0,0,0,0,0,0,0,0,0,0,154,
scooby_state_401d14|26|-1 1,153,0,0,0,0,0,0,0,0,0,0,0,0,0,154,
scooby_state_401cdb|24|-2 1,152,0,0,0,0,0,0,1,0,0,0,0,0,0,154,
scooby_state_401cdb|47|-2 2,151,0,0,0,0,0,0,0,0,0,0,0,0,0,153,
scooby_state_401d14|39|-1 0,153,0,0,0,0,0,0,0,0,0,0,0,0,0,153,
scooby_state_401cdb|22|-2 0,152,0,0,0,0,0,0,0,0,0,0,0,0,0,152,
scooby_state_401d43|48|1 1,150,0,0,0,0,1,0,0,0,0,0,0,0,0,152,
scooby_state_401d43|60|1 0,152,0,0,0,0,0,0,0,0,0,0,0,0,0,152,
scooby_state_401cdb|59|-2 1,151,0,0,0,0,0,0,0,0,0,0,0,0,0,152,
scooby_state_401cdb|42|-2 2,150,0,0,0,0,0,0,0,0,0,0,0,0,0,152,
scooby_state_401d14|5|-1 0,152,0,0,0,0,0,0,0,0,0,0,0,0,0,152,
scooby_state_401d14|62|-1 0,152,0,0,0,0,0,0,0,0,0,0,0,0,0,152,
scooby_state_401d43|43|1 1,151,0,0,0,0,0,0,0,0,0,0,0,0,0,152,
scooby_state_401d43|23|1 0,152,0,0,0,0,0,0,0,0,0,0,0,0,0,152,
scooby_state_401d14|10|-1 0,152,0,0,0,0,0,0,0,0,0,0,0,0,0,152,
scooby_state_401cdb|36|-2 0,151,0,0,0,0,0,0,0,0,0,0,0,0,0,151,
scooby_state_401d14|37|-1 0,151,0,0,0,0,0,0,0,0,0,0,0,0,0,151,
scooby_state_401d43|37|1 0,150,1,0,0,0,0,0,0,0,0,0,0,0,0,151,
scooby_state_401d43|27|1 0,150,0,0,0,0,0,0,0,0,0,0,0,0,0,150,
scooby_state_401d43|0|-1 1,149,0,0,0,0,0,0,0,0,0,0,0,0,0,150,
scooby_state_401cdb|54|-2 0,149,0,0,0,1,0,0,0,0,0,0,0,0,0,150,
scooby_state_401d43|55|1 0,149,0,0,0,0,0,0,0,0,0,0,0,0,1,150,
scooby_state_401d14|58|-1 1,149,0,0,0,0,0,0,0,0,0,0,0,0,0,150,
scooby_state_401d14|63|2 0,150,0,0,0,0,0,0,0,0,0,0,0,0,0,150,
scooby_state_401cdb|26|-2 1,149,0,0,0,0,0,0,0,0,0,0,0,0,0,150,
scooby_state_401d14|51|-1 0,149,0,0,0,0,0,0,0,0,0,0,0,0,0,149,
scooby_state_401d43|35|1 0,148,0,0,0,0,0,0,0,0,0,0,0,0,1,149,
scooby_state_401cdb|2|-2 0,149,0,0,0,0,0,0,0,0,0,0,0,0,0,149,
scooby_state_401d43|3|1 0,149,0,0,0,0,0,0,0,0,0,0,0,0,0,149,
scooby_state_401cdb|34|-2 0,149,0,0,0,0,0,0,0,0,0,0,0,0,0,149,
scooby_state_401d14|57|-1 0,148,0,0,0,0,0,0,0,0,0,0,0,0,0,148,
scooby_state_401d43|39|1 0,148,0,0,0,0,0,0,0,0,0,0,0,0,0,148,
scooby_state_401cdb|48|-2 2,144,1,0,0,0,0,0,1,0,0,0,0,0,0,148,
scooby_state_401d43|49|1 0,148,0,0,0,0,0,0,0,0,0,0,0,0,0,148,
scooby_state_401d43|1|1 0,147,0,0,0,0,1,0,0,0,0,0,0,0,0,148,
scooby_state_401cdb|38|-2 2,145,0,0,1,0,0,0,0,0,0,0,0,0,0,148,
scooby_state_401d14|13|-1 0,146,0,0,0,1,0,0,0,0,0,0,0,0,0,147,
scooby_state_401d43|11|1 0,146,0,0,0,0,0,0,0,0,0,0,0,0,0,146,
scooby_state_401d14|17|-1 1,144,0,0,1,0,0,0,0,0,0,0,0,0,0,146,
scooby_state_401cdb|10|-2 0,145,0,0,0,0,0,0,0,0,0,1,0,0,0,146,
scooby_state_401d14|29|-1 0,145,0,0,0,0,0,0,0,0,0,0,0,0,0,145,
scooby_state_401d14|27|-1 0,145,0,0,0,0,0,0,0,0,0,0,0,0,0,145,
scooby_state_401d14|33|-1 1,143,0,0,0,0,1,0,0,0,0,0,0,0,0,145,
scooby_state_401d14|56|-1 0,145,0,0,0,0,0,0,0,0,0,0,0,0,0,145,
scooby_state_401d14|41|-1 0,144,0,0,0,0,0,0,0,0,0,0,0,0,0,144,
scooby_state_401d14|45|-1 1,142,0,0,0,0,0,0,0,0,0,0,0,0,1,144,
scooby_state_401d14|9|-1 1,141,1,0,0,0,0,0,0,0,0,0,0,0,0,143,
scooby_state_401cdb|62|2 53,90,0,0,0,0,0,0,0,0,0,0,0,0,0,143,
scooby_state_401d14|21|-1 0,142,0,0,0,0,0,0,0,0,0,1,0,0,0,143,
scooby_state_401d14|53|-1 1,142,0,0,0,0,0,0,0,0,0,0,0,0,0,143,
scooby_state_401d14|49|-1 1,141,0,0,0,0,0,0,0,0,0,0,0,0,1,143,
scooby_state_401d14|25|-1 0,142,0,0,0,0,0,0,0,0,0,0,0,0,0,142,
scooby_state_401d14|1|-1 1,141,0,0,0,0,0,0,0,0,0,0,0,0,0,142,
scooby_state_401d43|47|1 1,139,0,0,0,0,0,0,0,0,1,0,0,0,0,141,
scooby_state_401cdb|46|-2 1,140,0,0,0,0,0,0,0,0,0,0,0,0,0,141,
scooby_state_401d43|63|1 1,138,0,0,0,1,0,0,0,0,0,0,0,0,0,140,
scooby_state_401cdb|58|-2 1,137,0,0,0,0,0,0,0,1,0,0,0,0,0,139,
scooby_state_401d43|31|1 1,138,0,0,0,0,0,0,0,0,0,0,0,0,0,139,
scooby_state_401d43|59|1 0,138,0,0,0,0,0,0,0,0,0,0,0,0,1,139,
scooby_state_401cdb|30|-2 2,137,0,0,0,0,0,0,0,0,0,0,0,0,0,139,
scooby_state_401d43|19|1 0,139,0,0,0,0,0,0,0,0,0,0,0,0,0,139,
scooby_state_401cdb|18|-2 1,138,0,0,0,0,0,0,0,0,0,0,0,0,0,139,
scooby_state_401d14|61|-1 0,138,0,0,0,0,0,0,0,0,0,0,0,0,0,138,
scooby_state_401cdb|6|-2 1,135,0,0,0,0,0,0,0,0,0,0,0,0,0,136,
scooby_state_401d43|7|1 0,136,0,0,0,0,0,0,0,0,0,0,0,0,0,136,
scooby_state_401cdb|0|-2 0,133,0,0,0,0,0,0,0,0,0,0,0,0,0,133,
scooby_state_4023cc|43|1 1,38,0,0,1,0,0,0,0,0,0,0,0,0,0,40,
scooby_state_40208c|42|1 37,0,0,0,0,0,0,0,0,0,0,0,1,0,0,38,
scooby_state_40206d|41|-2 35,0,0,0,0,0,0,0,0,0,0,0,0,0,0,35,
scooby_state_401e02|0|-1 12,0,0,0,0,0,0,0,0,0,0,0,0,0,0,12,
scooby_state_401e74|15|1 0,10,0,0,0,0,0,0,0,0,0,0,0,0,0,10,
scooby_state_4023cc|43|2 0,9,0,0,0,0,0,0,0,0,0,0,0,0,0,9,
scooby_state_401d37|0|-2 9,0,0,0,0,0,0,0,0,0,0,0,0,0,0,9,
scooby_state_40206d|41|0 9,0,0,0,0,0,0,0,0,0,0,0,0,0,0,9,
scooby_state_40206d|41|-1 0,8,0,0,0,0,0,0,0,0,0,0,0,0,0,8,
scooby_state_401d37|0|-1 8,0,0,0,0,0,0,0,0,0,0,0,0,0,0,8,
scooby_state_40208c|42|-1 1,6,0,0,0,0,0,0,0,0,0,0,0,0,0,7,
scooby_state_401d4f|0|-1 0,7,0,0,0,0,0,0,0,0,0,0,0,0,0,7,
scooby_state_401cdb|0|-1 2,5,0,0,0,0,0,0,0,0,0,0,0,0,0,7,
scooby_state_401ce6|0|-2 7,0,0,0,0,0,0,0,0,0,0,0,0,0,0,7,
scooby_state_401e74|16|1 0,6,0,0,0,0,0,0,0,0,0,0,0,0,0,6,
scooby_state_401e74|0|-1 0,6,0,0,0,0,0,0,0,0,0,0,0,0,0,6,
scooby_state_401d98|1|-1 6,0,0,0,0,0,0,0,0,0,0,0,0,0,0,6,
scooby_state_401e74|17|1 0,6,0,0,0,0,0,0,0,0,0,0,0,0,0,6,
scooby_state_4023cc|43|0 0,5,0,0,0,0,0,0,0,0,0,0,0,0,0,5,
scooby_state_401d98|0|-1 5,0,0,0,0,0,0,0,0,0,0,0,0,0,0,5,
scooby_state_402065|42|0 5,0,0,0,0,0,0,0,0,0,0,0,0,0,0,5,
scooby_state_401e81|8|1 0,4,0,0,0,0,0,0,0,0,0,0,0,0,0,4,
scooby_state_401e19|1|-2 0,4,0,0,0,0,0,0,0,0,0,0,0,0,0,4,
scooby_state_401e74|36|1 0,4,0,0,0,0,0,0,0,0,0,0,0,0,0,4,
scooby_state_401e40|60|-1 4,0,0,0,0,0,0,0,0,0,0,0,0,0,0,4,
scooby_state_401e4d|53|-1 4,0,0,0,0,0,0,0,0,0,0,0,0,0,0,4,
scooby_state_401e74|1|-1 0,4,0,0,0,0,0,0,0,0,0,0,0,0,0,4,
scooby_state_401e81|61|1 0,4,0,0,0,0,0,0,0,0,0,0,0,0,0,4,
scooby_state_401e74|19|1 0,4,0,0,0,0,0,0,0,0,0,0,0,0,0,4,
scooby_state_401e67|1|-1 0,4,0,0,0,0,0,0,0,0,0,0,0,0,0,4,
scooby_state_401e33|0|-2 0,4,0,0,0,0,0,0,0,0,0,0,0,0,0,4,
scooby_state_401cb0|3|2 3,0,0,0,0,0,0,0,0,0,0,0,0,0,0,3,
scooby_state_401e74|13|1 0,3,0,0,0,0,0,0,0,0,0,0,0,0,0,3,
scooby_state_401e4d|32|-1 3,0,0,0,0,0,0,0,0,0,0,0,0,0,0,3,
scooby_state_40208c|42|0 3,0,0,0,0,0,0,0,0,0,0,0,0,0,0,3,
scooby_state_401e74|47|1 0,3,0,0,0,0,0,0,0,0,0,0,0,0,0,3,
scooby_state_401e33|2|2 0,3,0,0,0,0,0,0,0,0,0,0,0,0,0,3,
scooby_state_401d4f|63|1 0,3,0,0,0,0,0,0,0,0,0,0,0,0,0,3,
scooby_state_401e74|46|1 0,3,0,0,0,0,0,0,0,0,0,0,0,0,0,3,
scooby_state_401e4d|23|-1 3,0,0,0,0,0,0,0,0,0,0,0,0,0,0,3,
scooby_state_401e40|20|-1 3,0,0,0,0,0,0,0,0,0,0,0,0,0,0,3,
scooby_state_401e74|27|1 0,3,0,0,0,0,0,0,0,0,0,0,0,0,0,3,
scooby_state_401e40|45|-1 3,0,0,0,0,0,0,0,0,0,0,0,0,0,0,3,
scooby_state_401e40|57|-1 3,0,0,0,0,0,0,0,0,0,0,0,0,0,0,3,
scooby_state_401e19|0|-2 0,2,0,0,0,0,0,0,0,0,0,1,0,0,0,3,
scooby_state_401e81|47|1 0,3,0,0,0,0,0,0,0,0,0,0,0,0,0,3,
scooby_state_401e74|9|1 0,3,0,0,0,0,0,0,0,0,0,0,0,0,0,3,
scooby_state_401e74|35|1 0,3,0,0,0,0,0,0,0,0,0,0,0,0,0,3,
scooby_state_401e74|34|1 0,3,0,0,0,0,0,0,0,0,0,0,0,0,0,3,
scooby_state_401e74|33|1 0,3,0,0,0,0,0,0,0,0,0,0,0,0,0,3,
scooby_state_401e67|0|-3 0,3,0,0,0,0,0,0,0,0,0,0,0,0,0,3,
scooby_state_401e74|48|1 0,3,0,0,0,0,0,0,0,0,0,0,0,0,0,3,
scooby_state_401e74|40|1 0,3,0,0,0,0,0,0,0,0,0,0,0,0,0,3,
scooby_state_401e40|52|-1 3,0,0,0,0,0,0,0,0,0,0,0,0,0,0,3,
scooby_state_401e74|55|1 0,3,0,0,0,0,0,0,0,0,0,0,0,0,0,3,
scooby_state_401e40|48|-1 3,0,0,0,0,0,0,0,0,0,0,0,0,0,0,3,
scooby_state_401e74|63|1 0,3,0,0,0,0,0,0,0,0,0,0,0,0,0,3,
scooby_state_401e74|38|1 0,3,0,0,0,0,0,0,0,0,0,0,0,0,0,3,
scooby_state_401e26|0|-2 3,0,0,0,0,0,0,0,0,0,0,0,0,0,0,3,
scooby_state_401e40|6|-1 3,0,0,0,0,0,0,0,0,0,0,0,0,0,0,3,
scooby_state_401e74|14|1 0,2,0,0,0,0,0,0,0,0,0,0,0,0,0,2,
scooby_state_401e74|59|1 0,2,0,0,0,0,0,0,0,0,0,0,0,0,0,2,
scooby_state_401e4d|51|-1 2,0,0,0,0,0,0,0,0,0,0,0,0,0,0,2,
scooby_state_401cb0|4|2 2,0,0,0,0,0,0,0,0,0,0,0,0,0,0,2,
scooby_state_401e74|56|1 0,2,0,0,0,0,0,0,0,0,0,0,0,0,0,2,
scooby_state_401e81|19|1 0,2,0,0,0,0,0,0,0,0,0,0,0,0,0,2,
scooby_state_401e4d|58|-1 2,0,0,0,0,0,0,0,0,0,0,0,0,0,0,2,
scooby_state_401e40|59|-1 2,0,0,0,0,0,0,0,0,0,0,0,0,0,0,2,
scooby_state_401e4d|38|-1 2,0,0,0,0,0,0,0,0,0,0,0,0,0,0,2,
scooby_state_401e4d|44|-1 2,0,0,0,0,0,0,0,0,0,0,0,0,0,0,2,
scooby_state_401e0f|62|2 2,0,0,0,0,0,0,0,0,0,0,0,0,0,0,2,
scooby_state_401e02|0|-4 2,0,0,0,0,0,0,0,0,0,0,0,0,0,0,2,
scooby_state_401e9b|0|-1 0,2,0,0,0,0,0,0,0,0,0,0,0,0,0,2,
scooby_state_401e81|34|1 0,2,0,0,0,0,0,0,0,0,0,0,0,0,0,2,
scooby_state_401e4d|29|-1 2,0,0,0,0,0,0,0,0,0,0,0,0,0,0,2,
scooby_state_401e74|23|1 0,2,0,0,0,0,0,0,0,0,0,0,0,0,0,2,
scooby_state_401e4d|8|-1 2,0,0,0,0,0,0,0,0,0,0,0,0,0,0,2,
scooby_state_401e74|5|1 0,2,0,0,0,0,0,0,0,0,0,0,0,0,0,2,
scooby_state_401e4d|47|-1 2,0,0,0,0,0,0,0,0,0,0,0,0,0,0,2,
scooby_state_401e74|41|1 0,2,0,0,0,0,0,0,0,0,0,0,0,0,0,2,
scooby_state_401e74|45|1 0,2,0,0,0,0,0,0,0,0,0,0,0,0,0,2,
scooby_state_401e33|3|2 0,2,0,0,0,0,0,0,0,0,0,0,0,0,0,2,
scooby_state_401e9b|1|-1 0,2,0,0,0,0,0,0,0,0,0,0,0,0,0,2,
scooby_state_401e74|24|1 0,2,0,0,0,0,0,0,0,0,0,0,0,0,0,2,
scooby_state_401e74|8|1 0,2,0,0,0,0,0,0,0,0,0,0,0,0,0,2,
scooby_state_401e19|3|-2 0,2,0,0,0,0,0,0,0,0,0,0,0,0,0,2,
scooby_state_401e40|34|-1 2,0,0,0,0,0,0,0,0,0,0,0,0,0,0,2,
scooby_state_401e4d|54|-1 2,0,0,0,0,0,0,0,0,0,0,0,0,0,0,2,
scooby_state_401dac|0|-1 2,0,0,0,0,0,0,0,0,0,0,0,0,0,0,2,
scooby_state_401e40|3|-1 2,0,0,0,0,0,0,0,0,0,0,0,0,0,0,2,
scooby_state_401e81|29|1 0,2,0,0,0,0,0,0,0,0,0,0,0,0,0,2,
scooby_state_401e74|2|1 0,2,0,0,0,0,0,0,0,0,0,0,0,0,0,2,
scooby_state_401e81|21|1 0,2,0,0,0,0,0,0,0,0,0,0,0,0,0,2,
scooby_state_401e4d|9|-1 2,0,0,0,0,0,0,0,0,0,0,0,0,0,0,2,
scooby_state_401e4d|10|-1 2,0,0,0,0,0,0,0,0,0,0,0,0,0,0,2,
scooby_state_401e74|37|1 0,2,0,0,0,0,0,0,0,0,0,0,0,0,0,2,
scooby_state_401e74|50|1 0,2,0,0,0,0,0,0,0,0,0,0,0,0,0,2,
scooby_state_401e4d|14|-1 2,0,0,0,0,0,0,0,0,0,0,0,0,0,0,2,
scooby_state_401e40|37|-1 2,0,0,0,0,0,0,0,0,0,0,0,0,0,0,2,
scooby_state_401e4d|63|2 2,0,0,0,0,0,0,0,0,0,0,0,0,0,0,2,
scooby_state_401e40|29|-1 2,0,0,0,0,0,0,0,0,0,0,0,0,0,0,2,
scooby_state_401e4d|34|-1 2,0,0,0,0,0,0,0,0,0,0,0,0,0,0,2,
scooby_state_401e74|10|1 0,2,0,0,0,0,0,0,0,0,0,0,0,0,0,2,
scooby_state_402065|42|1 2,0,0,0,0,0,0,0,0,0,0,0,0,0,0,2,
scooby_state_401e81|46|1 0,2,0,0,0,0,0,0,0,0,0,0,0,0,0,2,
scooby_state_401e40|13|-1 2,0,0,0,0,0,0,0,0,0,0,0,0,0,0,2,
scooby_state_401e4d|25|-1 2,0,0,0,0,0,0,0,0,0,0,0,0,0,0,2,
scooby_state_401d1f|50|-1 0,2,0,0,0,0,0,0,0,0,0,0,0,0,0,2,
scooby_state_401e33|0|-4 0,2,0,0,0,0,0,0,0,0,0,0,0,0,0,2,
scooby_state_401e02|2|2 2,0,0,0,0,0,0,0,0,0,0,0,0,0,0,2,
scooby_state_401e40|63|2 2,0,0,0,0,0,0,0,0,0,0,0,0,0,0,2,
scooby_state_401e4d|15|-1 2,0,0,0,0,0,0,0,0,0,0,0,0,0,0,2,
scooby_state_401e19|19|-2 0,2,0,0,0,0,0,0,0,0,0,0,0,0,0,2,
scooby_state_401e81|5|1 0,2,0,0,0,0,0,0,0,0,0,0,0,0,0,2,
scooby_state_401d1f|12|-1 0,2,0,0,0,0,0,0,0,0,0,0,0,0,0,2,
scooby_state_401e81|25|1 0,2,0,0,0,0,0,0,0,0,0,0,0,0,0,2,
scooby_state_402065|42|-1 0,2,0,0,0,0,0,0,0,0,0,0,0,0,0,2,
scooby_state_401e40|53|-1 2,0,0,0,0,0,0,0,0,0,0,0,0,0,0,2,
scooby_state_401e74|51|1 0,2,0,0,0,0,0,0,0,0,0,0,0,0,0,2,
scooby_state_401d1f|27|-1 0,2,0,0,0,0,0,0,0,0,0,0,0,0,0,2,
scooby_state_401e4d|41|-1 1,0,0,0,0,0,0,0,0,0,0,0,0,0,0,1,
scooby_state_401e4d|18|-1 1,0,0,0,0,0,0,0,0,0,0,0,0,0,0,1,
scooby_state_401e5a|55|-1 1,0,0,0,0,0,0,0,0,0,0,0,0,0,0,1,
scooby_state_401d2b|38|-1 1,0,0,0,0,0,0,0,0,0,0,0,0,0,0,1,
scooby_state_401e81|62|1 0,1,0,0,0,0,0,0,0,0,0,0,0,0,0,1,
scooby_state_402100|4|1 1,0,0,0,0,0,0,0,0,0,0,0,0,0,0,1,
scooby_state_401e40|1|-1 1,0,0,0,0,0,0,0,0,0,0,0,0,0,0,1,
scooby_state_401e40|14|-1 1,0,0,0,0,0,0,0,0,0,0,0,0,0,0,1,
scooby_state_401e81|9|1 0,1,0,0,0,0,0,0,0,0,0,0,0,0,0,1,
scooby_state_401e81|1|-1 0,1,0,0,0,0,0,0,0,0,0,0,0,0,0,1,
scooby_state_401e40|2|-1 1,0,0,0,0,0,0,0,0,0,0,0,0,0,0,1,
scooby_state_401ea8|0|-1 1,0,0,0,0,0,0,0,0,0,0,0,0,0,0,1,
scooby_state_401e81|14|1 0,1,0,0,0,0,0,0,0,0,0,0,0,0,0,1,
scooby_state_401e81|23|1 0,1,0,0,0,0,0,0,0,0,0,0,0,0,0,1,
scooby_state_401e4d|39|-1 1,0,0,0,0,0,0,0,0,0,0,0,0,0,0,1,
scooby_state_401e4d|42|-1 1,0,0,0,0,0,0,0,0,0,0,0,0,0,0,1,
scooby_state_401e74|11|1 0,1,0,0,0,0,0,0,0,0,0,0,0,0,0,1,
scooby_state_401e0f|63|2 1,0,0,0,0,0,0,0,0,0,0,0,0,0,0,1,
scooby_state_401e40|18|-1 1,0,0,0,0,0,0,0,0,0,0,0,0,0,0,1,
scooby_state_401d4f|48|1 0,1,0,0,0,0,0,0,0,0,0,0,0,0,0,1,
scooby_state_401d98|1|1 0,1,0,0,0,0,0,0,0,0,0,0,0,0,0,1,
scooby_state_401e74|49|1 0,1,0,0,0,0,0,0,0,0,0,0,0,0,0,1,
scooby_state_401e74|18|1 0,1,0,0,0,0,0,0,0,0,0,0,0,0,0,1,
scooby_state_401e4d|55|-1 1,0,0,0,0,0,0,0,0,0,0,0,0,0,0,1,
scooby_state_401e81|20|1 0,1,0,0,0,0,0,0,0,0,0,0,0,0,0,1,
scooby_state_401e40|56|-1 1,0,0,0,0,0,0,0,0,0,0,0,0,0,0,1,
scooby_state_401e40|42|-1 1,0,0,0,0,0,0,0,0,0,0,0,0,0,0,1,
scooby_state_401e81|0|-1 0,1,0,0,0,0,0,0,0,0,0,0,0,0,0,1,
scooby_state_401e40|10|-1 1,0,0,0,0,0,0,0,0,0,0,0,0,0,0,1,
scooby_state_401e8e|1|-1 1,0,0,0,0,0,0,0,0,0,0,0,0,0,0,1,
scooby_state_401e74|57|1 0,1,0,0,0,0,0,0,0,0,0,0,0,0,0,1,
scooby_state_402704|28|1 1,0,0,0,0,0,0,0,0,0,0,0,0,0,0,1,
scooby_state_401e74|3|1 0,1,0,0,0,0,0,0,0,0,0,0,0,0,0,1,
scooby_state_401e74|26|1 0,1,0,0,0,0,0,0,0,0,0,0,0,0,0,1,
scooby_state_401e81|38|1 0,1,0,0,0,0,0,0,0,0,0,0,0,0,0,1,
scooby_state_402058|41|0 0,1,0,0,0,0,0,0,0,0,0,0,0,0,0,1,
scooby_state_401e74|39|1 0,1,0,0,0,0,0,0,0,0,0,0,0,0,0,1,
scooby_state_401e81|15|1 0,1,0,0,0,0,0,0,0,0,0,0,0,0,0,1,
scooby_state_401e4d|52|-1 1,0,0,0,0,0,0,0,0,0,0,0,0,0,0,1,
scooby_state_401e81|63|1 0,1,0,0,0,0,0,0,0,0,0,0,0,0,0,1,
scooby_state_401e4d|27|-1 1,0,0,0,0,0,0,0,0,0,0,0,0,0,0,1,
scooby_state_401e74|28|1 0,1,0,0,0,0,0,0,0,0,0,0,0,0,0,1,
scooby_state_401e40|8|-1 1,0,0,0,0,0,0,0,0,0,0,0,0,0,0,1,
scooby_state_401e40|55|-1 1,0,0,0,0,0,0,0,0,0,0,0,0,0,0,1,
scooby_state_401e40|32|-1 1,0,0,0,0,0,0,0,0,0,0,0,0,0,0,1,
scooby_state_401e4d|22|-1 1,0,0,0,0,0,0,0,0,0,0,0,0,0,0,1,
scooby_state_401e4d|46|-1 1,0,0,0,0,0,0,0,0,0,0,0,0,0,0,1,
scooby_state_401e5a|50|-1 1,0,0,0,0,0,0,0,0,0,0,0,0,0,0,1,
scooby_state_401e4d|26|-1 1,0,0,0,0,0,0,0,0,0,0,0,0,0,0,1,
scooby_state_401e81|42|1 0,1,0,0,0,0,0,0,0,0,0,0,0,0,0,1,
scooby_state_401e4d|31|-1 1,0,0,0,0,0,0,0,0,0,0,0,0,0,0,1,
scooby_state_401e40|58|-1 1,0,0,0,0,0,0,0,0,0,0,0,0,0,0,1,
scooby_state_401e4d|16|-1 1,0,0,0,0,0,0,0,0,0,0,0,0,0,0,1,
scooby_state_401e40|30|-1 1,0,0,0,0,0,0,0,0,0,0,0,0,0,0,1,
scooby_state_401e40|44|-1 1,0,0,0,0,0,0,0,0,0,0,0,0,0,0,1,
scooby_state_401e74|52|1 0,1,0,0,0,0,0,0,0,0,0,0,0,0,0,1,
scooby_state_401e4d|13|-1 1,0,0,0,0,0,0,0,0,0,0,0,0,0,0,1,
scooby_state_401e4d|36|-1 1,0,0,0,0,0,0,0,0,0,0,0,0,0,0,1,
scooby_state_401e40|21|-1 1,0,0,0,0,0,0,0,0,0,0,0,0,0,0,1,
scooby_state_401e81|2|1 0,1,0,0,0,0,0,0,0,0,0,0,0,0,0,1,
scooby_state_401e81|48|1 0,1,0,0,0,0,0,0,0,0,0,0,0,0,0,1,
scooby_state_401d1f|13|-1 0,1,0,0,0,0,0,0,0,0,0,0,0,0,0,1,
scooby_state_402441|17|1 1,0,0,0,0,0,0,0,0,0,0,0,0,0,0,1,
scooby_state_402241|9|1 1,0,0,0,0,0,0,0,0,0,0,0,0,0,0,1,
scooby_state_401e40|4|-1 1,0,0,0,0,0,0,0,0,0,0,0,0,0,0,1,
scooby_state_4027cb|31|0 1,0,0,0,0,0,0,0,0,0,0,0,0,0,0,1,
scooby_state_401e33|47|1 1,0,0,0,0,0,0,0,0,0,0,0,0,0,0,1,
scooby_state_401e0f|51|-2 1,0,0,0,0,0,0,0,0,0,0,0,0,0,0,1,
scooby_state_402585|22|1 1,0,0,0,0,0,0,0,0,0,0,0,0,0,0,1,
scooby_state_401e81|22|1 0,1,0,0,0,0,0,0,0,0,0,0,0,0,0,1,
scooby_state_401e81|58|1 1,0,0,0,0,0,0,0,0,0,0,0,0,0,0,1,
scooby_state_402780|30|1 1,0,0,0,0,0,0,0,0,0,0,0,0,0,0,1,
scooby_state_401e40|57|1 1,0,0,0,0,0,0,0,0,0,0,0,0,0,0,1,
scooby_state_402000|0|-31 1,0,0,0,0,0,0,0,0,0,0,0,0,0,0,1,
scooby_state_401e02|56|1 1,0,0,0,0,0,0,0,0,0,0,0,0,0,0,1,
scooby_state_401df5|46|0 1,0,0,0,0,0,0,0,0,0,0,0,0,0,0,1,
scooby_state_4020c2|3|1 1,0,0,0,0,0,0,0,0,0,0,0,0,0,0,1,
scooby_state_401f44|61|1 1,0,0,0,0,0,0,0,0,0,0,0,0,0,0,1,
scooby_state_402345|13|1 1,0,0,0,0,0,0,0,0,0,0,0,0,0,0,1,
scooby_state_4021c2|7|1 1,0,0,0,0,0,0,0,0,0,0,0,0,0,0,1,
scooby_state_402505|20|1 1,0,0,0,0,0,0,0,0,0,0,0,0,0,0,1,
scooby_state_401e74|25|1 0,1,0,0,0,0,0,0,0,0,0,0,0,0,0,1,
scooby_state_402285|10|1 1,0,0,0,0,0,0,0,0,0,0,0,0,0,0,1,
scooby_state_4022c0|11|1 1,0,0,0,0,0,0,0,0,0,0,0,0,0,0,1,
scooby_state_401d1f|42|-1 0,1,0,0,0,0,0,0,0,0,0,0,0,0,0,1,
scooby_state_401d03|52|1 1,0,0,0,0,0,0,0,0,0,0,0,0,0,0,1,
scooby_state_401e81|51|1 0,1,0,0,0,0,0,0,0,0,0,0,0,0,0,1,
scooby_state_401e81|39|1 0,1,0,0,0,0,0,0,0,0,0,0,0,0,0,1,
scooby_state_4023c0|15|1 1,0,0,0,0,0,0,0,0,0,0,0,0,0,0,1,
scooby_state_401e74|43|1 0,1,0,0,0,0,0,0,0,0,0,0,0,0,0,1,
scooby_state_401e40|51|-1 1,0,0,0,0,0,0,0,0,0,0,0,0,0,0,1,
scooby_state_401e9b|48|1 1,0,0,0,0,0,0,0,0,0,0,0,0,0,0,1,
scooby_state_402741|29|1 1,0,0,0,0,0,0,0,0,0,0,0,0,0,0,1,
scooby_state_402642|25|1 1,0,0,0,0,0,0,0,0,0,0,0,0,0,0,1,
scooby_state_402382|14|1 1,0,0,0,0,0,0,0,0,0,0,0,0,0,0,1,
scooby_state_401fc1|63|1 1,0,0,0,0,0,0,0,0,0,0,0,0,0,0,1,
scooby_state_402304|12|1 1,0,0,0,0,0,0,0,0,0,0,0,0,0,0,1,
scooby_state_402600|24|1 1,0,0,0,0,0,0,0,0,0,0,0,0,0,0,1,
scooby_state_401d4f|40|1 1,0,0,0,0,0,0,0,0,0,0,0,0,0,0,1,
scooby_state_4024c4|19|1 1,0,0,0,0,0,0,0,0,0,0,0,0,0,0,1,
scooby_state_401d82|54|1 1,0,0,0,0,0,0,0,0,0,0,0,0,0,0,1,
scooby_state_401e4d|33|-1 1,0,0,0,0,0,0,0,0,0,0,0,0,0,0,1,
scooby_state_401e81|54|1 0,1,0,0,0,0,0,0,0,0,0,0,0,0,0,1,
scooby_state_402044|1|1 1,0,0,0,0,0,0,0,0,0,0,0,0,0,0,1,
scooby_state_401e81|33|1 0,1,0,0,0,0,0,0,0,0,0,0,0,0,0,1,
scooby_state_401e81|43|1 0,1,0,0,0,0,0,0,0,0,0,0,0,0,0,1,
scooby_state_402402|16|1 1,0,0,0,0,0,0,0,0,0,0,0,0,0,0,1,
scooby_state_402142|5|1 1,0,0,0,0,0,0,0,0,0,0,0,0,0,0,1,
scooby_state_401f00|60|6 1,0,0,0,0,0,0,0,0,0,0,0,0,0,0,1,
scooby_state_402183|6|1 1,0,0,0,0,0,0,0,0,0,0,0,0,0,0,1,
scooby_state_401e4d|6|-1 1,0,0,0,0,0,0,0,0,0,0,0,0,0,0,1,
scooby_state_401df0|55|0 1,0,0,0,0,0,0,0,0,0,0,0,0,0,0,1,
scooby_state_401e74|7|1 0,1,0,0,0,0,0,0,0,0,0,0,0,0,0,1,
scooby_state_401e81|40|1 0,1,0,0,0,0,0,0,0,0,0,0,0,0,0,1,
scooby_state_402081|2|1 1,0,0,0,0,0,0,0,0,0,0,0,0,0,0,1,
scooby_state_401e4d|28|-1 1,0,0,0,0,0,0,0,0,0,0,0,0,0,0,1,
scooby_state_402203|8|1 1,0,0,0,0,0,0,0,0,0,0,0,0,0,0,1,
scooby_state_401f82|62|1 1,0,0,0,0,0,0,0,0,0,0,0,0,0,0,1,
scooby_state_401cb0|50|-9 1,0,0,0,0,0,0,0,0,0,0,0,0,0,0,1,
scooby_state_401e4d|61|-1 1,0,0,0,0,0,0,0,0,0,0,0,0,0,0,1,
scooby_state_401e4d|35|-1 1,0,0,0,0,0,0,0,0,0,0,0,0,0,0,1,
scooby_state_401e4d|24|-1 1,0,0,0,0,0,0,0,0,0,0,0,0,0,0,1,
scooby_state_401e4d|12|-1 1,0,0,0,0,0,0,0,0,0,0,0,0,0,0,1,
scooby_state_401ea8|1|-1 1,0,0,0,0,0,0,0,0,0,0,0,0,0,0,1,
scooby_state_401d71|1|-1 1,0,0,0,0,0,0,0,0,0,0,0,0,0,0,1,
scooby_state_401e40|41|-1 1,0,0,0,0,0,0,0,0,0,0,0,0,0,0,1,
scooby_state_402680|26|1 1,0,0,0,0,0,0,0,0,0,0,0,0,0,0,1,
scooby_state_401e4d|45|-1 1,0,0,0,0,0,0,0,0,0,0,0,0,0,0,1,
scooby_state_401e81|35|1 0,1,0,0,0,0,0,0,0,0,0,0,0,0,0,1,
scooby_state_401e81|3|1 0,1,0,0,0,0,0,0,0,0,0,0,0,0,0,1,
scooby_state_401e4d|48|-1 1,0,0,0,0,0,0,0,0,0,0,0,0,0,0,1,
scooby_state_401e5a|0|-1 1,0,0,0,0,0,0,0,0,0,0,0,0,0,0,1,
scooby_state_401e74|31|1 0,1,0,0,0,0,0,0,0,0,0,0,0,0,0,1,
scooby_state_401e40|36|-1 1,0,0,0,0,0,0,0,0,0,0,0,0,0,0,1,
scooby_state_401e4d|43|-1 1,0,0,0,0,0,0,0,0,0,0,0,0,0,0,1,
scooby_state_401e74|12|1 0,1,0,0,0,0,0,0,0,0,0,0,0,0,0,1,
scooby_state_401e8e|0|-1 1,0,0,0,0,0,0,0,0,0,0,0,0,0,0,1,
scooby_state_401e4d|59|-1 1,0,0,0,0,0,0,0,0,0,0,0,0,0,0,1,
scooby_state_402058|41|-2 1,0,0,0,0,0,0,0,0,0,0,0,0,0,0,1,
scooby_state_401e40|43|-1 1,0,0,0,0,0,0,0,0,0,0,0,0,0,0,1,
scooby_state_401e40|5|-1 1,0,0,0,0,0,0,0,0,0,0,0,0,0,0,1,
scooby_state_401e40|54|-1 1,0,0,0,0,0,0,0,0,0,0,0,0,0,0,1,
scooby_state_401e40|27|-1 1,0,0,0,0,0,0,0,0,0,0,0,0,0,0,1,
scooby_state_401e74|42|1 0,1,0,0,0,0,0,0,0,0,0,0,0,0,0,1,
scooby_state_401e81|41|1 0,1,0,0,0,0,0,0,0,0,0,0,0,0,0,1,
scooby_state_401e74|21|1 0,1,0,0,0,0,0,0,0,0,0,0,0,0,0,1,
scooby_state_401e19|4|-2 0,1,0,0,0,0,0,0,0,0,0,0,0,0,0,1,
scooby_state_401e4d|57|-1 1,0,0,0,0,0,0,0,0,0,0,0,0,0,0,1,
scooby_state_4026c4|27|1 1,0,0,0,0,0,0,0,0,0,0,0,0,0,0,1,
scooby_state_401e40|39|-1 1,0,0,0,0,0,0,0,0,0,0,0,0,0,0,1,
scooby_state_401ec5|59|1 1,0,0,0,0,0,0,0,0,0,0,0,0,0,0,1,
scooby_state_401e81|13|1 0,1,0,0,0,0,0,0,0,0,0,0,0,0,0,1,
scooby_state_401e5a|0|-2 1,0,0,0,0,0,0,0,0,0,0,0,0,0,0,1,
scooby_state_401e4d|56|-1 1,0,0,0,0,0,0,0,0,0,0,0,0,0,0,1,
scooby_state_401e40|0|-2 1,0,0,0,0,0,0,0,0,0,0,0,0,0,0,1,
scooby_state_4025c2|23|1 1,0,0,0,0,0,0,0,0,0,0,0,0,0,0,1,
scooby_state_401e40|0|-1 1,0,0,0,0,0,0,0,0,0,0,0,0,0,0,1,
scooby_state_401e4d|17|-1 1,0,0,0,0,0,0,0,0,0,0,0,0,0,0,1,
scooby_state_401e19|20|-2 0,1,0,0,0,0,0,0,0,0,0,0,0,0,0,1,
scooby_state_402540|21|1 1,0,0,0,0,0,0,0,0,0,0,0,0,0,0,1,
scooby_state_401cc5|51|1 1,0,0,0,0,0,0,0,0,0,0,0,0,0,0,1,
scooby_state_401e74|53|1 0,1,0,0,0,0,0,0,0,0,0,0,0,0,0,1,
scooby_state_401d1f|62|-1 0,1,0,0,0,0,0,0,0,0,0,0,0,0,0,1,
scooby_state_401d1f|47|-1 0,1,0,0,0,0,0,0,0,0,0,0,0,0,0,1,
scooby_state_402485|18|1 1,0,0,0,0,0,0,0,0,0,0,0,0,0,0,1,
scooby_state_401e40|24|-1 1,0,0,0,0,0,0,0,0,0,0,0,0,0,0,1,
scooby_state_401e81|27|1 0,1,0,0,0,0,0,0,0,0,0,0,0,0,0,1,
scooby_state_401d1f|34|-1 0,1,0,0,0,0,0,0,0,0,0,0,0,0,0,1,
scooby_state_401d4f|34|1 0,1,0,0,0,0,0,0,0,0,0,0,0,0,0,1,
scooby_state_401e74|54|1 0,1,0,0,0,0,0,0,0,0,0,0,0,0,0,1,
scooby_state_401d1f|44|-1 0,1,0,0,0,0,0,0,0,0,0,0,0,0,0,1,
scooby_state_401d1f|22|-1 0,1,0,0,0,0,0,0,0,0,0,0,0,0,0,1,
scooby_state_401d1f|51|-1 0,1,0,0,0,0,0,0,0,0,0,0,0,0,0,1,
scooby_state_401e4d|49|-1 1,0,0,0,0,0,0,0,0,0,0,0,0,0,0,1,
scooby_state_401e40|47|-1 1,0,0,0,0,0,0,0,0,0,0,0,0,0,0,1,

scooby_action_0_deg_dist 0,16,0,0,0,0,0,0,0,0,0,0,0,0,0,0,
scooby_action_4_deg_dist 0,15,0,0,0,0,0,0,0,0,0,0,0,0,0,0,
scooby_action_3_deg_dist 0,7505,5031,0,12309,0,37046,0,0,0,0,0,0,0,0,0,
scooby_action_32_deg_dist 0,15,0,0,0,0,0,0,0,0,0,0,0,0,0,0,
scooby_action_5_deg_dist 0,16,0,0,0,0,0,0,0,0,0,0,0,0,0,0,
scooby_action_1_deg_dist 0,6752,5281,0,13742,0,42898,0,0,0,0,0,0,0,0,0,
scooby_action_30_deg_dist 0,18,0,0,0,0,0,0,0,0,0,0,0,0,0,0,
scooby_action_-3_deg_dist 0,12,0,0,0,0,0,0,0,0,0,0,0,0,0,0,
scooby_action_10_deg_dist 0,25,0,0,0,0,0,0,0,0,0,0,0,0,0,0,
scooby_action_-1_deg_dist 0,18,0,0,0,0,0,0,0,0,0,0,0,0,0,0,
scooby_action_23_deg_dist 0,15,0,0,0,0,0,0,0,0,0,0,0,0,0,0,
scooby_action_-6_deg_dist 0,12,0,0,0,0,0,0,0,0,0,0,0,0,0,0,
scooby_action_11_deg_dist 0,19,0,0,0,0,0,0,0,0,0,0,0,0,0,0,
scooby_action_22_deg_dist 0,20,0,0,0,0,0,0,0,0,0,0,0,0,0,0,
scooby_action_12_deg_dist 0,19,0,0,0,0,0,0,0,0,0,0,0,0,0,0,

scooby_track_called 130784
scooby_track_same_address 24929
scooby_track_evict 105599

scooby_reward_demand_called 130784
scooby_reward_demand_pt_not_found 29166
scooby_reward_demand_pt_found 101618
scooby_reward_demand_pt_found_total 101618
scooby_reward_demand_has_reward 4
scooby_reward_train_called 264
scooby_reward_assign_reward_called 105853
scooby_reward_no_pref 16
scooby_reward_incorrect 248
scooby_reward_correct_untimely 80686
scooby_reward_correct_timely 20928
scooby_reward_out_of_bounds 3975
scooby_reward_tracker_hit 0

scooby_reward_none_low_bw 16
scooby_reward_none_high_bw 0
scooby_reward_incorrect_low_bw 248
scooby_reward_incorrect_high_bw 0
scooby_reward_correct_untimely_low_bw 80686
scooby_reward_correct_untimely_high_bw 0
scooby_reward_correct_timely_low_bw 20928
scooby_reward_correct_timely_high_bw 0
scooby_reward_out_of_bounds_low_bw 3975
scooby_reward_out_of_bounds_high_bw 0
scooby_reward_tracker_hit_low_bw 0
scooby_reward_tracker_hit_high_bw 0

scooby_reward_1 0,168,42173,9900,1131,0,
scooby_reward_3 0,67,38485,10938,2799,0,
scooby_reward_4 0,0,10,5,0,0,
scooby_reward_5 0,0,5,10,1,0,
scooby_reward_10 0,1,8,12,4,0,
scooby_reward_11 0,0,2,11,6,0,
scooby_reward_12 0,0,3,13,3,0,
scooby_reward_22 0,0,0,14,6,0,
scooby_reward_23 0,0,0,10,5,0,
scooby_reward_30 0,0,0,8,10,0,
scooby_reward_32 0,0,0,7,8,0,
scooby_reward_-1 0,3,0,0,1,0,
scooby_reward_-3 0,6,0,0,0,0,
scooby_reward_-6 0,3,0,0,1,0,
scooby_reward_0 16,0,0,0,0,0,

scooby_train_called 105598
scooby_train_compute_reward 264

scooby_register_fill_called 100914
scooby_register_fill_set 20989
scooby_register_fill_set_total 20989

scooby_register_prefetch_hit_called 169591
scooby_register_prefetch_hit_set 64735
scooby_register_prefetch_hit_set_total 64735

scooby_pref_issue_scooby 423305

learning_engine_featurewise.action.called 130784
learning_engine_featurewise.action.explore 257
learning_engine_featurewise.action.exploit 130527
learning_engine_featurewise.action.fallback 0
learning_engine_featurewise.action.dyn_fallback_saved_bw 0
learning_engine_featurewise.action.dyn_fallback_saved_bw_acc 2829
learning_engine_featurewise.action.index_1_explored 15
learning_engine_featurewise.action.index_1_exploited 68658
learning_engine_featurewise.action.index_3_explored 22
learning_engine_featurewise.action.index_3_exploited 61869
learning_engine_featurewise.action.index_4_explored 15
learning_engine_featurewise.action.index_4_exploited 0
learning_engine_featurewise.action.index_5_explored 16
learning_engine_featurewise.action.index_5_exploited 0
learning_engine_featurewise.action.index_10_explored 25
learning_engine_featurewise.action.index_10_exploited 0
learning_engine_featurewise.action.index_11_explored 19
learning_engine_featurewise.action.index_11_exploited 0
learning_engine_featurewise.action.index_12_explored 19
learning_engine_featurewise.action.index_12_exploited 0
learning_engine_featurewise.action.index_22_explored 20
learning_engine_featurewise.action.index_22_exploited 0
learning_engine_featurewise.action.index_23_explored 15
learning_engine_featurewise.action.index_23_exploited 0
learning_engine_featurewise.action.index_30_explored 18
learning_engine_featurewise.action.index_30_exploited 0
learning_engine_featurewise.action.index_32_explored 15
learning_engine_featurewise.action.index_32_exploited 0
learning_engine_featurewise.action.index_-1_explored 18
learning_engine_featurewise.action.index_-1_exploited 0
learning_engine_featurewise.action.index_-3_explored 12
learning_engine_featurewise.action.index_-3_exploited 0
learning_engine_featurewise.action.index_-6_explored 12
learning_engine_featurewise.action.index_-6_exploited 0
learning_engine_featurewise.action.index_0_explored 16
learning_engine_featurewise.action.index_0_exploited 0
learning_engine_featurewise.learn.called 105598
learning_engine_featurewise.learn.su_skip_PC 0
learning_engine_featurewise.learn.su_skip_PC_Delta 0

learning_engine_featurewise.q_value_histogram.bucket_0 0
learning_engine_featurewise.q_value_histogram.bucket_1 0
learning_engine_featurewise.q_value_histogram.bucket_2 0
learning_engine_featurewise.q_value_histogram.bucket_3 0
learning_engine_featurewise.q_value_histogram.bucket_4 1220
learning_engine_featurewise.q_value_histogram.bucket_5 1504
learning_engine_featurewise.q_value_histogram.bucket_6 127803
learning_engine_featurewise.q_value_histogram.bucket_7 0

learning_engine_featurewise.consensus.total 130527
learning_engine_featurewise.consensus.feature_align_PC 126716
learning_engine_featurewise.consensus.feature_align_PC_ratio 0.97
learning_engine_featurewise.consensus.feature_align_PC_Delta 129710
learning_engine_featurewise.consensus.feature_align_PC_Delta_ratio 0.99
learning_engine_featurewise.consensus.feature_align_all 125899
learning_engine_featurewise.consensus.feature_align_all_ratio 0.96

learning_engine_featurewise.feature_PC_min_weight 1000000.00000000
learning_engine_featurewise.feature_PC_max_weight 0.00000000
learning_engine_featurewise.feature_PC_Delta_min_weight 1000000.00000000
learning_engine_featurewise.feature_PC_Delta_max_weight 0.00000000
unique_pcs 73
unique_pages 2044
unique_trigger_pcs 8
total_bitmaps_seen 0
unique_bitmaps_seen 0

scooby_bw_epochs 99540
scooby_bw_level_0 16133
scooby_bw_level_1 40595
scooby_bw_level_2 29485
scooby_bw_level_3 13327

scooby_ipc_epochs 0
scooby_ipc_level_0 0
scooby_ipc_level_1 0
scooby_ipc_level_2 0
scooby_ipc_level_3 0

scooby_cache_acc_epochs 24168
scooby_cache_acc_level_0 81
scooby_cache_acc_level_1 288
scooby_cache_acc_level_2 494
scooby_cache_acc_level_3 709
scooby_cache_acc_level_4 1033
scooby_cache_acc_level_5 1388
scooby_cache_acc_level_6 1876
scooby_cache_acc_level_7 2298
scooby_cache_acc_level_8 2489
scooby_cache_acc_level_9 13512

Channel_0_RQ_row_buffer_hit 149357
Channel_0_RQ_row_buffer_miss 326818
Channel_0_WQ_row_buffer_hit 45530
Channel_0_WQ_row_buffer_miss 307543
Channel_0_WQ_full 0
Channel_0_dbus_congested 647232

avg_congested_cycle 11

DRAM_bw_pochs 99540
DRAM_bw_level_0 16133
DRAM_bw_level_1 40595
DRAM_bw_level_2 29485
DRAM_bw_level_3 13327
