Original cmd-> /cluster/home/vlnitu/CA-Lab4-24-vlnitu/Pythia/bin/perceptron-no-multi-no-ship-1core --warmup_instructions=1000000 --simulation_instructions=10000000 --l2c_prefetcher_types=scooby --config=/cluster/home/vlnitu/CA-Lab4-24-vlnitu/Pythia/config/pythia.ini --mail-type=BEGIN,END  -traces /cluster/home/vlnitu/CA-Lab4-24-vlnitu/Pythia/traces/620.omnetpp_s-141B.champsimtrace.xz
*************************************************
   ChampSim Multicore Out-of-Order Simulator
   Last compiled: Nov 19 2024 20:10:11
*************************************************
parsing config file: /cluster/home/vlnitu/CA-Lab4-24-vlnitu/Pythia/config/pythia.ini
unable to parse section: , name: mail-type, value: BEGIN,END

trace_0 /cluster/home/vlnitu/CA-Lab4-24-vlnitu/Pythia/traces/620.omnetpp_s-141B.champsimtrace.xz
adding L2C_PREFETCHER: Scooby
Initialize SHIP state
warmup_instructions 1000000
simulation_instructions 10000000
champsim_seed 216
measure_ipc 0
measure_ipc_epoch 1000
measure_dram_bw 1
measure_dram_bw_epoch 256
measure_cache_acc 1
measure_cache_acc_epoch 1024
l1d_perfect 0
l2c_perfect 0
llc_perfect 0
l1d_semi_perfect 0
l2c_semi_perfect 0
llc_semi_perfect 0
semi_perfect_cache_page_buffer_size 64

num_cpus 1
cpu_freq 4000
dram_io_freq 2400
page_size 4096
block_size 64
max_read_per_cycle 8
max_fill_per_cycle 1
dram_channels 1
log2_dram_channels 0
dram_ranks 1
dram_banks 8
dram_rows 65536
dram_columns 128
dram_row_size 8
dram_size 4096
dram_pages 1048576

fetch_width 6
decode_width 6
exec_width 4
lq_width 2
sq_width 2
retire_width 4
scheduler_size 128
branch_mispredict_penalty 20
rob_size 256
lq_size 72
sq_size 56
num_instr_destinations_sparc 4
num_instr_destinations 2
num_instr_sources 4

itlb_set 16
itlb_way 8
itlb_rq_size 16
itlb_wq_size 16
itlb_pq_size 0
itlb_mshr_size 8
itlb_latency 1

dtlb_set 16
dtlb_way 4
dtlb_rq_size 16
dtlb_wq_size 16
dtlb_pq_size 0
dtlb_mshr_size 8
dtlb_latency 1

stlb_set 128
stlb_way 12
stlb_rq_size 32
stlb_wq_size 32
stlb_pq_size 0
stlb_mshr_size 16
stlb_latency 8

l1i_size 32
l1i_set 64
l1i_way 8
l1i_rq_size 64
l1i_wq_size 64
l1i_pq_size 8
l1i_mshr_size 8
l1i_latency 1

l1d_size 32
l1d_set 64
l1d_way 8
l1d_rq_size 64
l1d_wq_size 64
l1d_pq_size 8
l1d_mshr_size 16
l1d_latency 4

l2c_size 256
l2c_set 512
l2c_way 8
l2c_rq_size 32
l2c_wq_size 32
l2c_pq_size 32
l2c_mshr_size 32
l2c_latency 10

llc_size 2048
llc_set 2048
llc_way 16
llc_rq_size 32
llc_wq_size 32
llc_pq_size 32
llc_mshr_size 64
llc_latency 20

dram_channel_width 8
dram_wq_size 64
dram_rq_size 64
tRP 15
tRCD 15
tCAS 12.5
dram_dbus_turn_around_time 30
dram_write_high_wm 56
dram_write_low_wm 48
min_dram_writes_per_switch 16
dram_mtps 2400
dram_dbus_return_time 13

scooby_alpha 0.0065088
scooby_gamma 0.556301
scooby_epsilon 0.00182284
scooby_state_num_bits 10
scooby_max_states 1024
scooby_seed 200
scooby_policy EGreedy
scooby_learning_type SARSA
scooby_actions 1,3,4,5,10,11,12,22,23,30,32,-1,-3,-6,0,
scooby_max_actions 15
scooby_pt_size 256
scooby_st_size 64
scooby_max_pcs 5
scooby_max_offsets 5
scooby_max_deltas 5
scooby_reward_none -4
scooby_reward_incorrect -8
scooby_reward_correct_untimely 12
scooby_reward_correct_timely 20
scooby_brain_zero_init 0
scooby_enable_reward_all 0
scooby_enable_track_multiple 0
scooby_enable_reward_out_of_bounds 1
scooby_reward_out_of_bounds -12
scooby_state_type 1
scooby_state_hash_type 11
scooby_access_debug 0
scooby_print_access_debug 0
scooby_print_access_debug_pc deadbeef
scooby_print_access_debug_pc_count 0
scooby_print_trace 0
scooby_enable_state_action_stats 1
scooby_enable_reward_tracker_hit 0
scooby_reward_tracker_hit -2
scooby_enable_featurewise_engine 1
scooby_pref_degree 1
scooby_enable_dyn_degree 1
scooby_max_to_avg_q_thresholds 0.5,1,2,
scooby_dyn_degrees 1,2,4,4,
scooby_multi_deg_select_type 2
scooby_last_pref_offset_conf_thresholds 1,3,8,
scooby_dyn_degrees_type2 1,2,4,6,
scooby_action_tracker_size 2
scooby_high_bw_thresh 4
scooby_enable_hbw_reward 1
scooby_reward_hbw_correct_timely 20
scooby_reward_hbw_correct_untimely 12
scooby_reward_hbw_incorrect -14
scooby_reward_hbw_none -2
scooby_reward_hbw_out_of_bounds -12
scooby_reward_hbw_tracker_hit -2
scooby_last_pref_offset_conf_thresholds_hbw 1,3,8,
scooby_dyn_degrees_type2_hbw 1,2,4,6,

le_enable_trace 0
le_trace_interval 0
le_trace_file_name 
le_trace_state 0
le_enable_score_plot 0
le_plot_file_name 
le_plot_actions 
le_enable_action_trace 0
le_action_trace_interval 0
le_action_trace_name 
le_enable_action_plot 0

le_featurewise_active_features PC, PC_Delta
le_featurewise_num_tilings 3,3,
le_featurewise_num_tiles 128,128,
le_featurewise_hash_types 2,2,
le_featurewise_enable_tiling_offset 1,1,
le_featurewise_max_q_thresh 0.5
le_featurewise_enable_action_fallback 1
le_featurewise_feature_weights 1,1,
le_featurewise_enable_dynamic_weight 0
le_featurewise_weight_gradient 0.001
le_featurewise_disable_adjust_weight_all_features_align 1
le_featurewise_selective_update 0
le_featurewise_pooling_type 2
le_featurewise_enable_dyn_action_fallback 1
le_featurewise_bw_acc_check_level 1
le_featurewise_acc_thresh 2
le_featurewise_enable_trace 0
le_featurewise_trace_feature_type 0
le_featurewise_trace_feature 
le_featurewise_trace_interval 0
le_featurewise_trace_record_count 0
le_featurewise_trace_file_name 
le_featurewise_enable_score_plot 0
le_featurewise_plot_actions 
le_featurewise_plot_file_name 


Heartbeat CPU  0 instructions:    1000000 cycles:     860697 heartbeat IPC: 1.16185 cumulative IPC: 1.16185 (Simulation time: 0 hr 0 min 2 sec) 

Warmup complete CPU  0 instructions:    1000001 cycles:     860699 (Simulation time: 0 hr 0 min 2 sec) 

Heartbeat CPU  0 instructions:    2000000 cycles:    5048614 heartbeat IPC: 0.23878 cumulative IPC: 0.23878 (Simulation time: 0 hr 0 min 4 sec) 
Heartbeat CPU  0 instructions:    3000001 cycles:    9121827 heartbeat IPC: 0.24551 cumulative IPC: 0.24210 (Simulation time: 0 hr 0 min 7 sec) 
Heartbeat CPU  0 instructions:    4000000 cycles:   13485970 heartbeat IPC: 0.22914 cumulative IPC: 0.23762 (Simulation time: 0 hr 0 min 9 sec) 
Heartbeat CPU  0 instructions:    5000001 cycles:   17709321 heartbeat IPC: 0.23678 cumulative IPC: 0.23741 (Simulation time: 0 hr 0 min 12 sec) 
Heartbeat CPU  0 instructions:    6000000 cycles:   21887655 heartbeat IPC: 0.23933 cumulative IPC: 0.23779 (Simulation time: 0 hr 0 min 14 sec) 
Heartbeat CPU  0 instructions:    7000003 cycles:   26083597 heartbeat IPC: 0.23833 cumulative IPC: 0.23788 (Simulation time: 0 hr 0 min 17 sec) 
Heartbeat CPU  0 instructions:    8000000 cycles:   30098683 heartbeat IPC: 0.24906 cumulative IPC: 0.23941 (Simulation time: 0 hr 0 min 19 sec) 
Heartbeat CPU  0 instructions:    9000000 cycles:   34309347 heartbeat IPC: 0.23749 cumulative IPC: 0.23917 (Simulation time: 0 hr 0 min 22 sec) 
Heartbeat CPU  0 instructions:   10000000 cycles:   38532937 heartbeat IPC: 0.23677 cumulative IPC: 0.23890 (Simulation time: 0 hr 0 min 24 sec) 
Heartbeat CPU  0 instructions:   11000000 cycles:   42771058 heartbeat IPC: 0.23595 cumulative IPC: 0.23860 (Simulation time: 0 hr 0 min 27 sec) 
Finished CPU 0 instructions: 10000000 cycles: 41910360 cumulative IPC: 0.23860 (Simulation time: 0 hr 0 min 27 sec) 

ChampSim completed all CPUs

[ROI Statistics]
Core_0_instructions 10000000
Core_0_cycles 41910360
Core_0_IPC 0.23860

Core_0_branch_prediction_accuracy 96.18924
Core_0_branch_MPKI 5.69570
Core_0_average_ROB_occupancy_at_mispredict 84.76349

Core_0_L1D_total_access 4401721
Core_0_L1D_total_hit 4199492
Core_0_L1D_total_miss 202229
Core_0_L1D_loads 2589255
Core_0_L1D_load_hit 2411444
Core_0_L1D_load_miss 177811
Core_0_L1D_RFOs 1812466
Core_0_L1D_RFO_hit 1788048
Core_0_L1D_RFO_miss 24418
Core_0_L1D_prefetches 0
Core_0_L1D_prefetch_hit 0
Core_0_L1D_prefetch_miss 0
Core_0_L1D_writebacks 0
Core_0_L1D_writeback_hit 0
Core_0_L1D_writeback_miss 0
Core_0_L1D_prefetch_requested 0
Core_0_L1D_prefetch_dropped 0
Core_0_L1D_prefetch_issued 0
Core_0_L1D_prefetch_filled 0
Core_0_L1D_prefetch_useful 0
Core_0_L1D_prefetch_useless 0
Core_0_L1D_prefetch_late 0
Core_0_L1D_average_miss_latency 103.67205

Core_0_L1D_rq_access 3146768
Core_0_L1D_rq_forward 0
Core_0_L1D_rq_merged 546247
Core_0_L1D_rq_to_cache 2600516
Core_0_L1D_rq_full 0

Core_0_L1D_wq_access 1860287
Core_0_L1D_wq_forward 5
Core_0_L1D_wq_merged 6663
Core_0_L1D_wq_to_cache 1853624
Core_0_L1D_wq_full 0

Core_0_L1D_pq_access 0
Core_0_L1D_pq_forward 0
Core_0_L1D_pq_merged 0
Core_0_L1D_pq_to_cache 0
Core_0_L1D_pq_full 0

Core_0_L1D_acc_epochs 37097
Core_0_L1D_acc_level_0 37097
Core_0_L1D_acc_level_1 0
Core_0_L1D_acc_level_2 0
Core_0_L1D_acc_level_3 0
Core_0_L1D_acc_level_4 0
Core_0_L1D_acc_level_5 0
Core_0_L1D_acc_level_6 0
Core_0_L1D_acc_level_7 0
Core_0_L1D_acc_level_8 0
Core_0_L1D_acc_level_9 0

Core_0_L1I_total_access 3268827
Core_0_L1I_total_hit 3262820
Core_0_L1I_total_miss 6007
Core_0_L1I_loads 3268827
Core_0_L1I_load_hit 3262820
Core_0_L1I_load_miss 6007
Core_0_L1I_RFOs 0
Core_0_L1I_RFO_hit 0
Core_0_L1I_RFO_miss 0
Core_0_L1I_prefetches 0
Core_0_L1I_prefetch_hit 0
Core_0_L1I_prefetch_miss 0
Core_0_L1I_writebacks 0
Core_0_L1I_writeback_hit 0
Core_0_L1I_writeback_miss 0
Core_0_L1I_prefetch_requested 0
Core_0_L1I_prefetch_dropped 0
Core_0_L1I_prefetch_issued 0
Core_0_L1I_prefetch_filled 0
Core_0_L1I_prefetch_useful 0
Core_0_L1I_prefetch_useless 0
Core_0_L1I_prefetch_late 0
Core_0_L1I_average_miss_latency 26.09905

Core_0_L1I_rq_access 10000090
Core_0_L1I_rq_forward 0
Core_0_L1I_rq_merged 6727446
Core_0_L1I_rq_to_cache 3272644
Core_0_L1I_rq_full 0

Core_0_L1I_wq_access 0
Core_0_L1I_wq_forward 0
Core_0_L1I_wq_merged 0
Core_0_L1I_wq_to_cache 0
Core_0_L1I_wq_full 0

Core_0_L1I_pq_access 0
Core_0_L1I_pq_forward 0
Core_0_L1I_pq_merged 0
Core_0_L1I_pq_to_cache 0
Core_0_L1I_pq_full 0

Core_0_L1I_acc_epochs 37097
Core_0_L1I_acc_level_0 37097
Core_0_L1I_acc_level_1 0
Core_0_L1I_acc_level_2 0
Core_0_L1I_acc_level_3 0
Core_0_L1I_acc_level_4 0
Core_0_L1I_acc_level_5 0
Core_0_L1I_acc_level_6 0
Core_0_L1I_acc_level_7 0
Core_0_L1I_acc_level_8 0
Core_0_L1I_acc_level_9 0

Core_0_L2C_total_access 461212
Core_0_L2C_total_hit 227283
Core_0_L2C_total_miss 233929
Core_0_L2C_loads 183811
Core_0_L2C_load_hit 75469
Core_0_L2C_load_miss 108342
Core_0_L2C_RFOs 24415
Core_0_L2C_RFO_hit 9329
Core_0_L2C_RFO_miss 15086
Core_0_L2C_prefetches 155114
Core_0_L2C_prefetch_hit 45034
Core_0_L2C_prefetch_miss 110080
Core_0_L2C_writebacks 97872
Core_0_L2C_writeback_hit 97451
Core_0_L2C_writeback_miss 421
Core_0_L2C_prefetch_requested 188460
Core_0_L2C_prefetch_dropped 0
Core_0_L2C_prefetch_issued 188460
Core_0_L2C_prefetch_filled 122532
Core_0_L2C_prefetch_useful 36220
Core_0_L2C_prefetch_useless 85026
Core_0_L2C_prefetch_late 1463
Core_0_L2C_average_miss_latency 148.21365

Core_0_L2C_rq_access 208235
Core_0_L2C_rq_forward 0
Core_0_L2C_rq_merged 0
Core_0_L2C_rq_to_cache 208226
Core_0_L2C_rq_full 0

Core_0_L2C_wq_access 97872
Core_0_L2C_wq_forward 10
Core_0_L2C_wq_merged 0
Core_0_L2C_wq_to_cache 97872
Core_0_L2C_wq_full 0

Core_0_L2C_pq_access 188460
Core_0_L2C_pq_forward 0
Core_0_L2C_pq_merged 2989
Core_0_L2C_pq_to_cache 185470
Core_0_L2C_pq_full 0

Core_0_L2C_acc_epochs 37097
Core_0_L2C_acc_level_0 8238
Core_0_L2C_acc_level_1 6946
Core_0_L2C_acc_level_2 7063
Core_0_L2C_acc_level_3 5126
Core_0_L2C_acc_level_4 2671
Core_0_L2C_acc_level_5 3099
Core_0_L2C_acc_level_6 1548
Core_0_L2C_acc_level_7 790
Core_0_L2C_acc_level_8 417
Core_0_L2C_acc_level_9 1199

Core_0_LLC_total_access 311776
Core_0_LLC_total_hit 140554
Core_0_LLC_total_miss 171222
Core_0_LLC_loads 107169
Core_0_LLC_load_hit 38010
Core_0_LLC_load_miss 69159
Core_0_LLC_RFOs 14859
Core_0_LLC_RFO_hit 5397
Core_0_LLC_RFO_miss 9462
Core_0_LLC_prefetches 111480
Core_0_LLC_prefetch_hit 34993
Core_0_LLC_prefetch_miss 76487
Core_0_LLC_writebacks 78268
Core_0_LLC_writeback_hit 62154
Core_0_LLC_writeback_miss 16114
Core_0_LLC_prefetch_requested 0
Core_0_LLC_prefetch_dropped 0
Core_0_LLC_prefetch_issued 0
Core_0_LLC_prefetch_filled 87669
Core_0_LLC_prefetch_useful 3212
Core_0_LLC_prefetch_useless 73941
Core_0_LLC_prefetch_late 0
Core_0_LLC_average_miss_latency 154.39776

Core_0_LLC_rq_access 122028
Core_0_LLC_rq_forward 0
Core_0_LLC_rq_merged 0
Core_0_LLC_rq_to_cache 122028
Core_0_LLC_rq_full 0

Core_0_LLC_wq_access 78267
Core_0_LLC_wq_forward 0
Core_0_LLC_wq_merged 0
Core_0_LLC_wq_to_cache 78267
Core_0_LLC_wq_full 0

Core_0_LLC_pq_access 123995
Core_0_LLC_pq_forward 0
Core_0_LLC_pq_merged 0
Core_0_LLC_pq_to_cache 123995
Core_0_LLC_pq_full 0

Core_0_LLC_acc_epochs 41769
Core_0_LLC_acc_level_0 37857
Core_0_LLC_acc_level_1 1790
Core_0_LLC_acc_level_2 1182
Core_0_LLC_acc_level_3 128
Core_0_LLC_acc_level_4 6
Core_0_LLC_acc_level_5 699
Core_0_LLC_acc_level_6 31
Core_0_LLC_acc_level_7 26
Core_0_LLC_acc_level_8 1
Core_0_LLC_acc_level_9 49

Core_0_major_page_fault 0
Core_0_minor_page_fault 23836

scooby_st_lookup 202424
scooby_st_hit 100942
scooby_st_evict 101418
scooby_st_insert 101482
scooby_st_streaming 0

scooby_predict_called 202424
scooby_predict_out_of_bounds 10269
scooby_predict_action_1 116779
scooby_predict_issue_action_1 108510
scooby_predict_hit_action_1 8269
scooby_predict_out_of_bounds_action_1 1748
scooby_predict_action_3 19720
scooby_predict_issue_action_3 18085
scooby_predict_hit_action_3 1635
scooby_predict_out_of_bounds_action_3 888
scooby_predict_action_4 5778
scooby_predict_issue_action_4 5363
scooby_predict_hit_action_4 415
scooby_predict_out_of_bounds_action_4 307
scooby_predict_action_5 3765
scooby_predict_issue_action_5 3398
scooby_predict_hit_action_5 367
scooby_predict_out_of_bounds_action_5 272
scooby_predict_action_10 2613
scooby_predict_issue_action_10 2545
scooby_predict_hit_action_10 68
scooby_predict_out_of_bounds_action_10 494
scooby_predict_action_11 2503
scooby_predict_issue_action_11 2356
scooby_predict_hit_action_11 147
scooby_predict_out_of_bounds_action_11 460
scooby_predict_action_12 2411
scooby_predict_issue_action_12 2276
scooby_predict_hit_action_12 135
scooby_predict_out_of_bounds_action_12 539
scooby_predict_action_22 1707
scooby_predict_issue_action_22 1669
scooby_predict_hit_action_22 38
scooby_predict_out_of_bounds_action_22 871
scooby_predict_action_23 1757
scooby_predict_issue_action_23 1715
scooby_predict_hit_action_23 42
scooby_predict_out_of_bounds_action_23 868
scooby_predict_action_30 1446
scooby_predict_issue_action_30 1410
scooby_predict_hit_action_30 36
scooby_predict_out_of_bounds_action_30 1124
scooby_predict_action_32 1304
scooby_predict_issue_action_32 1273
scooby_predict_hit_action_32 31
scooby_predict_out_of_bounds_action_32 1158
scooby_predict_action_-1 14215
scooby_predict_issue_action_-1 10180
scooby_predict_hit_action_-1 4035
scooby_predict_out_of_bounds_action_-1 225
scooby_predict_action_-3 7121
scooby_predict_issue_action_-3 6506
scooby_predict_hit_action_-3 615
scooby_predict_out_of_bounds_action_-3 409
scooby_predict_action_-6 5833
scooby_predict_issue_action_-6 5607
scooby_predict_hit_action_-6 226
scooby_predict_out_of_bounds_action_-6 906
scooby_predict_action_0 5203
scooby_predict_issue_action_0 0
scooby_predict_hit_action_0 0
scooby_predict_out_of_bounds_action_0 0
scooby_predict_multi_deg_called 9875
scooby_predict_predicted 188460
scooby_predict_multi_deg 17567
scooby_predict_multi_deg_2 9704
scooby_predict_multi_deg_3 3665
scooby_predict_multi_deg_4 3609
scooby_predict_multi_deg_5 296
scooby_predict_multi_deg_6 293
scooby_predict_multi_deg_7 0
scooby_predict_multi_deg_8 0
scooby_predict_multi_deg_9 0
scooby_predict_multi_deg_10 0
scooby_predict_multi_deg_11 0
scooby_predict_multi_deg_12 0
scooby_predict_multi_deg_13 0
scooby_predict_multi_deg_14 0
scooby_predict_multi_deg_15 0
scooby_predict_multi_deg_16 0

scooby_selected_deg_1 161018
scooby_selected_deg_2 6088
scooby_selected_deg_3 0
scooby_selected_deg_4 3471
scooby_selected_deg_5 0
scooby_selected_deg_6 316
scooby_selected_deg_7 0
scooby_selected_deg_8 0
scooby_selected_deg_9 0
scooby_selected_deg_10 0
scooby_selected_deg_11 0
scooby_selected_deg_12 0
scooby_selected_deg_13 0
scooby_selected_deg_14 0
scooby_selected_deg_15 0
scooby_selected_deg_16 0

scooby_state_47134d|40|0 384,2,0,0,2,1,1,2,2,0,2,0,0,1,4,401,
scooby_state_47134d|56|0 377,2,2,3,1,1,2,1,1,1,0,1,2,3,1,398,
scooby_state_47134d|43|0 366,2,0,0,3,1,1,1,0,0,4,0,2,1,3,384,
scooby_state_47134d|35|0 362,0,1,2,1,2,2,0,1,1,0,3,1,0,3,379,
scooby_state_47134d|58|0 352,1,1,2,1,0,2,2,0,3,0,1,2,0,3,370,
scooby_state_47134d|44|0 360,2,0,0,0,1,1,0,0,0,0,1,2,0,2,369,
scooby_state_47134d|34|0 353,0,2,1,0,0,0,1,0,0,0,2,2,1,3,365,
scooby_state_47134d|51|0 342,0,2,1,3,0,0,1,0,0,0,1,1,1,4,356,
scooby_state_47134d|36|0 343,2,0,0,3,1,1,0,1,1,1,0,0,1,1,355,
scooby_state_47134d|7|0 330,2,1,0,0,3,0,1,0,1,2,5,5,2,2,354,
scooby_state_47134d|60|0 336,1,1,0,1,1,2,1,0,0,1,3,0,3,3,353,
scooby_state_47134d|46|0 333,1,3,0,2,1,1,0,2,0,1,2,0,2,3,351,
scooby_state_471351|36|0 324,1,1,1,1,3,2,1,0,2,0,9,2,0,2,349,
scooby_state_47134d|59|0 332,2,1,1,0,0,3,0,2,1,0,2,3,1,1,349,
scooby_state_47134d|29|0 335,1,0,1,6,1,1,0,0,0,1,0,0,0,1,347,
scooby_state_47134d|57|0 329,1,0,2,0,1,1,0,2,1,0,3,1,1,5,347,
scooby_state_47134d|33|0 330,0,0,1,5,0,0,1,0,3,0,1,1,1,2,345,
scooby_state_47134d|32|0 310,5,2,2,3,2,2,1,3,2,0,3,1,0,2,338,
scooby_state_47134d|15|0 324,0,0,1,1,0,0,1,1,1,2,0,1,0,0,332,
scooby_state_471351|47|0 306,1,0,1,1,3,1,0,2,1,0,8,1,1,2,328,
scooby_state_47134d|30|0 289,3,1,3,2,2,3,3,1,2,3,2,1,3,6,324,
scooby_state_471351|46|0 304,5,1,1,0,0,0,0,0,2,0,4,2,1,3,323,
scooby_state_471351|17|0 298,4,2,1,1,1,1,0,0,1,1,8,0,0,4,322,
scooby_state_47134d|4|0 304,0,0,4,1,2,1,0,3,1,0,0,1,1,2,320,
scooby_state_47134d|5|0 310,0,1,2,0,0,1,0,2,0,1,1,1,1,0,320,
scooby_state_471351|30|0 288,0,0,2,1,4,0,1,3,2,2,6,0,1,8,318,
scooby_state_47134d|25|0 302,2,0,2,1,1,0,0,1,1,0,2,1,1,1,315,
scooby_state_471351|44|0 300,1,1,0,0,0,1,0,1,0,1,4,1,2,3,315,
scooby_state_471351|56|0 283,0,1,1,2,2,2,1,4,1,1,8,5,1,3,315,
scooby_state_47134d|39|0 296,2,1,0,0,2,1,1,0,2,1,1,3,3,2,315,
scooby_state_471351|32|0 280,2,3,4,1,3,1,1,2,1,1,6,0,2,6,313,
scooby_state_471351|40|0 288,4,1,0,1,2,1,1,0,2,3,5,0,3,2,313,
scooby_state_471351|60|0 293,3,1,1,1,0,3,0,1,1,1,5,0,0,2,312,
scooby_state_47134d|1|0 293,3,1,1,2,2,4,0,1,1,0,1,0,1,1,311,
scooby_state_471351|4|0 290,3,1,4,2,1,0,1,0,0,0,5,0,1,3,311,
scooby_state_471351|6|0 277,1,2,1,0,2,0,1,0,1,5,9,4,3,4,310,
scooby_state_47134d|38|0 294,0,2,1,2,1,0,1,1,0,1,0,2,2,1,308,
scooby_state_471351|34|0 279,3,0,1,3,1,0,1,1,2,0,9,1,2,5,308,
scooby_state_47134d|11|0 301,2,0,0,1,1,0,1,0,0,1,1,0,0,0,308,
scooby_state_471351|54|0 285,2,2,1,1,3,0,1,3,1,0,6,0,2,0,307,
scooby_state_47134d|45|0 294,2,0,3,0,0,0,0,2,0,1,1,1,1,1,306,
scooby_state_47134d|0|0 287,0,1,2,0,0,3,2,2,0,2,0,1,0,1,301,
scooby_state_471351|27|0 274,0,2,6,1,1,1,1,4,1,1,5,1,2,0,300,
scooby_state_471351|25|0 277,1,1,1,3,1,1,1,2,1,1,5,3,0,2,300,
scooby_state_47134d|53|0 284,1,1,0,2,0,1,1,2,0,2,1,0,0,3,298,
scooby_state_47134d|18|0 289,1,1,0,0,0,0,1,2,1,0,2,0,1,0,298,
scooby_state_47134d|47|0 285,1,1,2,0,2,2,1,1,0,0,1,0,1,1,298,
scooby_state_47134d|22|0 278,3,2,0,2,2,0,0,1,1,0,1,5,1,1,297,
scooby_state_47134d|23|0 285,2,0,0,1,0,0,2,0,0,1,3,1,1,1,297,
scooby_state_47134d|20|0 280,1,1,2,1,0,0,1,2,1,1,4,1,1,1,297,
scooby_state_47134d|48|0 282,1,0,2,3,0,0,1,4,1,1,1,0,0,0,296,
scooby_state_47134d|61|0 288,0,1,0,1,0,1,0,1,2,0,1,0,0,0,295,
scooby_state_47134d|54|0 280,0,1,2,2,0,1,0,0,1,1,2,1,2,1,294,
scooby_state_47134d|42|0 274,3,2,0,1,1,0,1,0,1,3,2,1,1,3,293,
scooby_state_47134d|52|0 273,2,2,0,3,1,0,3,0,0,1,0,2,1,4,292,
scooby_state_47134d|10|0 276,1,1,1,2,0,0,1,0,1,1,0,2,2,3,291,
scooby_state_47134d|3|0 267,2,2,1,0,3,0,1,3,2,1,3,0,2,4,291,
scooby_state_471351|23|0 272,2,0,1,2,0,2,0,0,1,0,8,1,1,1,291,
scooby_state_471351|5|0 276,1,2,0,1,1,1,1,1,0,0,2,1,1,2,290,
scooby_state_47134d|19|0 274,1,1,2,1,1,0,0,1,0,2,0,3,1,1,288,
scooby_state_4c2586|22|0 36,10,21,19,14,19,18,22,17,19,24,2,17,14,35,287,
scooby_state_47134d|16|0 269,2,2,0,2,1,0,2,0,0,0,3,0,3,3,287,
scooby_state_400580|22|0 12,140,8,5,7,9,8,8,7,8,7,45,2,6,14,286,
scooby_state_410598|22|0 110,0,0,0,0,0,0,0,0,0,0,0,0,176,0,286,
scooby_state_47134d|6|0 272,2,1,2,1,2,1,0,0,2,0,0,1,0,1,285,
scooby_state_47134d|31|0 271,1,1,3,0,0,0,0,2,1,1,0,3,0,2,285,
scooby_state_471351|7|0 274,0,0,0,0,0,0,0,1,2,0,4,1,2,0,284,
scooby_state_47134d|63|0 263,3,3,0,2,0,0,0,0,4,0,2,2,2,3,284,
scooby_state_47134d|8|0 263,4,1,1,2,0,1,2,2,0,1,1,1,1,3,283,
scooby_state_47134d|17|0 266,0,1,0,0,0,2,1,2,1,0,2,2,2,3,282,
scooby_state_471351|39|0 259,1,1,0,1,0,0,0,1,2,2,5,2,2,5,281,
scooby_state_471351|1|0 256,1,2,2,1,2,2,2,1,1,2,4,2,1,2,281,
scooby_state_471351|35|0 263,2,1,0,0,1,1,1,0,1,1,6,1,0,1,279,
scooby_state_471351|43|0 254,3,0,0,0,1,0,3,0,0,2,10,1,0,4,278,
scooby_state_471351|8|0 258,3,0,2,0,0,1,1,1,1,0,2,3,1,4,277,
scooby_state_471351|57|0 252,1,2,1,2,2,2,2,1,0,0,4,2,0,5,276,
scooby_state_471351|2|0 255,1,1,1,2,1,0,0,1,2,0,7,1,3,0,275,
scooby_state_47134d|41|0 257,0,1,1,4,3,0,1,2,1,0,2,0,0,1,273,
scooby_state_47134d|55|0 261,0,1,2,1,2,0,0,0,1,0,1,2,0,2,273,
scooby_state_47134d|9|0 258,0,0,1,0,0,1,4,0,1,3,1,2,0,2,273,
scooby_state_47134d|14|0 251,1,1,4,2,0,0,4,0,0,1,3,1,1,4,273,
scooby_state_471351|29|0 259,0,0,1,2,1,1,1,0,1,0,5,0,0,1,272,
scooby_state_471351|26|0 260,0,0,2,0,0,1,0,0,3,0,4,1,0,1,272,
scooby_state_47134d|27|0 255,3,1,1,1,2,1,0,0,0,0,4,1,1,1,271,
scooby_state_471351|15|0 255,1,1,1,2,0,1,0,2,0,1,4,0,1,2,271,
scooby_state_47134d|13|0 261,0,1,1,0,1,1,0,0,0,1,2,1,0,2,271,
scooby_state_471351|22|0 250,1,1,0,2,3,0,5,0,1,2,4,0,1,0,270,
scooby_state_471351|38|0 257,2,0,1,2,1,0,0,1,0,1,2,2,0,0,269,
scooby_state_471351|12|0 250,0,1,1,0,0,1,3,0,2,0,7,0,1,3,269,
scooby_state_471351|51|0 244,0,1,2,2,2,0,2,1,1,1,5,1,3,3,268,
scooby_state_471351|42|0 247,1,1,2,1,2,1,0,1,0,1,7,1,2,1,268,
scooby_state_47134d|28|0 256,0,0,1,1,2,0,1,0,2,0,0,1,0,2,266,
scooby_state_471351|28|0 251,1,0,1,1,1,0,0,0,1,0,6,0,1,1,264,
scooby_state_47134d|62|0 252,0,0,1,0,1,1,1,1,0,0,2,0,2,2,263,
scooby_state_471351|14|0 241,2,3,2,0,1,2,1,2,1,0,4,1,1,1,262,
scooby_state_47134d|50|0 253,1,0,1,0,2,1,0,0,1,0,2,1,0,0,262,
scooby_state_47134d|12|0 254,1,0,0,0,0,1,0,0,1,0,1,1,0,2,261,
scooby_state_471351|10|0 235,2,0,0,1,0,3,0,0,3,1,6,1,4,2,258,
scooby_state_47134d|2|0 248,2,0,0,0,0,3,1,1,0,0,0,0,0,3,258,
scooby_state_471351|52|0 229,1,1,1,0,2,1,0,1,1,3,10,1,4,2,257,
scooby_state_471351|55|0 233,2,2,1,3,1,2,3,0,0,2,5,1,0,1,256,
scooby_state_47d5c0|25|0 39,0,1,12,21,19,18,16,17,16,13,44,8,1,31,256,
scooby_state_471351|31|0 232,3,0,4,0,2,2,0,1,0,0,6,2,0,3,255,
scooby_state_47134d|37|0 236,1,0,1,0,1,1,2,0,1,0,5,2,0,3,253,
scooby_state_47134d|26|0 239,2,1,1,0,0,2,1,1,1,0,0,0,3,0,251,
scooby_state_471351|63|0 233,1,1,0,0,1,2,0,0,0,2,5,2,1,1,249,
scooby_state_471351|48|0 231,1,0,2,0,2,0,0,0,0,1,7,0,2,2,248,
scooby_state_471351|16|0 227,3,1,0,1,0,0,0,1,0,2,5,0,2,5,247,
scooby_state_471351|21|0 233,0,1,0,0,0,2,3,0,1,0,4,2,0,0,246,
scooby_state_471351|11|0 224,1,1,1,0,2,1,0,0,1,1,6,2,0,2,242,
scooby_state_471351|33|0 223,1,1,1,0,0,1,1,0,1,0,1,1,2,1,234,
scooby_state_471351|0|0 223,1,1,0,1,0,1,0,0,1,1,3,0,0,1,233,
scooby_state_471351|37|0 212,0,1,0,1,0,2,0,3,2,1,2,1,0,7,232,
scooby_state_471351|61|0 211,0,0,0,1,0,1,0,1,2,0,9,0,2,1,228,
scooby_state_624580|22|0 10,63,13,7,14,15,12,13,12,14,15,2,7,1,29,227,
scooby_state_471351|18|0 214,1,0,0,0,3,3,1,0,0,2,1,1,0,1,227,
scooby_state_47134d|21|0 221,0,0,1,1,1,0,1,0,0,2,0,0,0,0,227,
scooby_state_47134d|24|0 216,1,1,1,2,0,0,1,0,0,0,3,0,0,1,226,
scooby_state_47134d|49|0 213,1,2,0,1,0,1,1,1,0,0,4,1,1,0,226,
scooby_state_471351|20|0 217,2,1,1,1,0,0,0,0,0,0,2,0,1,0,225,
scooby_state_471351|58|0 200,5,0,2,2,0,0,3,0,1,1,7,1,2,1,225,
scooby_state_400580|2|0 11,106,9,4,7,4,4,5,7,3,8,39,2,5,10,224,
scooby_state_471351|53|0 208,1,2,0,2,1,1,0,2,1,1,3,0,1,1,224,
scooby_state_471351|59|0 201,4,1,1,0,0,3,3,2,0,0,5,0,2,0,222,
scooby_state_471351|19|0 204,0,2,0,1,0,0,0,2,1,1,5,1,0,1,218,
scooby_state_47e5a0|22|0 83,7,6,10,9,9,12,11,9,12,15,2,12,2,18,217,
scooby_state_471351|3|0 202,2,3,1,1,0,1,0,0,0,1,4,0,0,1,216,
scooby_state_471351|13|0 197,3,1,2,0,2,0,3,1,1,0,3,1,0,1,215,
scooby_state_471351|50|0 203,3,0,0,0,0,0,0,1,0,0,3,1,1,0,212,
scooby_state_471351|24|0 198,3,1,0,0,0,0,0,0,2,1,3,1,1,1,211,
scooby_state_444197|2|0 24,7,9,10,11,11,11,10,12,10,8,32,28,4,21,208,
scooby_state_471351|41|0 199,0,0,0,0,0,1,0,3,0,1,2,1,0,0,207,
scooby_state_471351|62|0 197,2,1,1,0,0,0,1,0,0,0,4,0,0,0,206,
scooby_state_471351|45|0 194,1,1,1,2,0,0,0,1,0,0,2,1,0,1,204,
scooby_state_55b7b0|33|0 16,10,12,14,13,13,13,14,13,14,11,10,9,4,23,189,
scooby_state_471351|9|0 169,0,0,1,3,1,0,0,2,0,1,3,3,0,0,183,
scooby_state_416e91|61|0 28,1,8,11,14,11,12,10,10,9,11,19,16,2,19,181,
scooby_state_623f20|33|0 29,3,29,10,5,9,9,7,6,7,6,4,23,17,17,181,
scooby_state_416eb9|11|0 149,0,3,1,2,2,2,3,1,0,2,0,2,2,2,171,
scooby_state_550140|5|0 5,0,3,2,3,3,5,2,4,2,2,2,3,129,3,168,
scooby_state_47133d|26|0 149,4,0,1,2,0,1,0,2,1,3,1,0,1,2,167,
scooby_state_444140|5|0 12,11,12,10,11,9,11,11,11,10,12,12,10,6,19,167,
scooby_state_444028|56|0 13,9,37,15,6,7,2,4,5,7,3,33,7,3,14,165,
scooby_state_63fb0d|7|0 0,12,47,4,7,9,6,9,7,9,7,3,10,18,15,163,
scooby_state_471351|49|0 154,0,0,1,0,0,2,0,1,1,0,1,1,0,1,162,
scooby_state_47d596|22|0 14,6,0,9,10,14,6,12,9,9,13,2,7,25,22,158,
scooby_state_621435|49|0 129,12,0,0,0,0,1,1,0,1,1,0,7,3,1,156,
scooby_state_55b6eb|58|0 76,5,4,5,4,4,5,5,5,5,8,12,9,0,8,155,
scooby_state_43b438|51|0 5,0,5,6,5,7,5,2,5,4,4,78,6,8,11,151,
scooby_state_400640|3|0 13,1,8,20,8,6,8,7,8,6,7,25,10,7,12,146,
scooby_state_4e9fc4|60|0 144,0,0,0,0,0,0,0,1,0,0,0,0,0,0,145,
scooby_state_47133d|28|0 132,0,1,1,2,0,0,2,0,0,1,2,0,1,2,144,
scooby_state_620a3f|55|0 75,2,3,5,2,2,3,2,1,2,2,23,3,5,6,136,
scooby_state_55bb13|32|0 100,4,0,1,3,3,1,3,0,3,1,1,1,4,1,126,
scooby_state_63fad6|46|-1 25,1,73,1,0,4,1,2,1,0,0,1,3,7,6,125,
scooby_state_55bb13|44|0 100,3,0,3,0,1,0,0,0,4,1,0,3,3,4,122,
scooby_state_624580|23|0 4,32,5,4,10,8,6,7,7,7,8,1,5,1,16,121,
scooby_state_55bb13|2|0 98,0,1,2,4,3,2,2,1,0,0,6,0,0,2,121,
scooby_state_4ebfa0|19|0 26,7,6,7,6,6,7,9,6,8,7,2,7,0,17,121,
scooby_state_55bb13|47|0 83,2,3,1,3,1,0,0,2,3,1,12,3,2,4,120,
scooby_state_55bb13|26|0 90,2,5,2,0,1,2,0,4,1,1,8,2,1,1,120,
scooby_state_55bb13|1|0 95,0,3,2,2,2,1,0,3,3,0,3,1,1,4,120,
scooby_state_54ff8c|12|-13 15,70,0,1,0,0,3,0,1,0,1,24,4,0,0,119,
scooby_state_54f002|0|0 93,0,2,1,3,3,1,1,2,1,1,2,2,5,2,119,
scooby_state_556027|0|0 80,14,2,0,3,3,2,4,2,0,3,0,1,0,3,117,
scooby_state_55bb13|29|0 89,1,2,2,2,4,0,4,0,3,0,6,1,2,1,117,
scooby_state_433f36|60|0 4,0,2,2,2,3,3,2,2,3,2,2,5,76,8,116,
scooby_state_55bb13|54|0 84,0,1,0,2,3,0,3,0,3,2,11,3,0,3,115,
scooby_state_555f8f|10|0 0,1,3,3,0,1,2,1,0,2,2,88,2,5,5,115,
scooby_state_47d430|16|0 42,50,10,0,1,3,1,1,1,0,2,0,0,0,2,113,
scooby_state_55bb13|7|0 89,1,1,1,1,2,0,0,1,0,4,5,1,2,4,112,
scooby_state_55bb13|28|0 93,4,1,0,2,0,0,0,0,1,0,5,2,3,1,112,
scooby_state_47133d|27|0 100,0,0,3,1,1,0,0,1,0,0,2,0,0,2,110,
scooby_state_55bb13|41|0 81,0,3,3,3,0,3,0,3,3,0,5,2,3,1,110,
scooby_state_47133d|4|0 108,0,0,1,0,0,0,0,0,0,0,0,0,0,0,109,
scooby_state_55bb13|23|0 90,0,1,1,0,3,0,3,0,2,0,6,1,2,0,109,
scooby_state_55bb13|56|0 88,1,3,2,1,3,0,3,3,2,0,2,0,1,0,109,
scooby_state_47133d|31|0 95,0,0,1,3,1,1,1,1,1,1,0,0,0,2,107,
scooby_state_47133d|18|0 95,1,0,2,0,0,1,0,0,2,1,0,1,1,2,106,
scooby_state_47d596|22|6 7,4,4,3,1,0,4,1,2,0,1,41,31,3,3,105,
scooby_state_621e83|59|0 1,2,3,8,6,5,7,6,7,5,8,12,11,5,18,104,
scooby_state_4ea0c7|6|0 1,0,0,0,1,0,0,1,0,1,0,0,0,100,0,104,
scooby_state_55bb13|55|0 78,0,5,1,1,2,2,0,4,1,0,3,1,4,2,104,
scooby_state_55b745|4|0 0,1,101,0,0,0,0,0,0,0,0,0,0,0,0,102,
scooby_state_55bb13|49|0 83,2,2,2,3,0,0,0,0,2,0,2,3,2,1,102,
scooby_state_555f27|60|0 2,8,0,7,6,7,7,6,6,6,8,7,10,3,19,102,
scooby_state_41cc4f|4|0 3,68,2,0,0,0,0,0,0,0,0,28,0,0,0,101,
scooby_state_47133d|39|0 88,1,0,2,3,0,0,2,0,1,0,0,1,2,0,100,
scooby_state_47133d|38|0 93,3,0,0,2,0,0,0,0,0,0,1,0,0,1,100,
scooby_state_47133d|36|0 96,1,0,0,0,0,0,0,0,0,0,0,1,1,1,100,
scooby_state_47133d|5|0 93,0,0,1,0,1,1,1,1,0,0,1,1,0,0,100,
scooby_state_55bb13|46|0 64,4,0,3,3,3,2,2,0,1,4,3,2,4,5,100,
scooby_state_55bb13|59|0 79,0,0,1,1,0,0,0,1,3,0,7,0,2,5,99,
scooby_state_47133d|45|0 93,1,1,1,0,1,0,1,0,0,0,1,0,0,0,99,
scooby_state_47133d|53|0 89,0,1,1,2,0,1,0,1,0,0,0,0,0,3,98,
scooby_state_47133d|8|0 89,0,3,1,0,0,1,0,1,1,1,1,0,0,0,98,
scooby_state_55bb13|19|0 80,0,2,2,1,1,2,1,2,0,0,3,0,1,3,98,
scooby_state_47133d|1|0 86,1,0,0,0,0,1,3,0,2,1,1,0,0,3,98,
scooby_state_64e160|5|0 30,0,18,4,1,1,3,2,5,1,2,5,25,0,1,98,
scooby_state_55bb13|45|0 75,1,1,3,3,1,3,0,0,2,2,3,0,1,3,98,
scooby_state_506f20|60|0 1,3,4,5,4,6,5,5,4,5,4,27,7,6,11,97,
scooby_state_55bb13|34|0 73,0,3,1,5,1,1,0,0,1,1,8,1,0,2,97,
scooby_state_47133d|20|0 90,2,0,0,1,1,0,0,0,1,0,1,0,0,1,97,
scooby_state_43b43b|54|48 1,1,10,10,5,4,7,4,3,4,4,3,8,11,22,97,
scooby_state_620b35|56|1 0,79,0,1,1,0,1,0,1,0,0,12,1,0,0,96,
scooby_state_47133d|19|0 84,4,1,0,0,0,1,2,1,1,1,0,0,0,1,96,
scooby_state_47133d|0|0 87,0,2,1,0,1,0,0,2,0,0,1,0,1,1,96,
scooby_state_47133d|9|0 86,1,0,0,0,0,0,2,0,2,0,3,0,0,1,95,
scooby_state_55bb13|24|0 81,0,0,0,3,0,0,0,0,2,0,5,2,0,2,95,
scooby_state_55bb13|25|0 81,1,2,0,1,1,0,0,0,1,0,4,1,1,2,95,
scooby_state_55bb13|48|0 85,0,1,2,0,0,0,0,0,1,0,4,0,1,0,94,
scooby_state_47133d|40|0 85,2,0,1,0,1,1,0,0,1,1,0,1,0,1,94,
scooby_state_47133d|52|0 90,0,1,0,0,0,0,0,0,1,0,0,0,1,1,94,
scooby_state_47133d|34|6 0,87,0,0,1,0,0,0,0,0,0,6,0,0,0,94,
scooby_state_55bb13|12|0 81,0,0,1,1,1,0,0,0,1,3,2,1,0,3,94,
scooby_state_47133d|6|0 86,1,1,0,0,0,1,2,1,0,0,0,0,2,0,94,
scooby_state_4ea048|61|1 1,8,0,0,0,1,0,0,1,0,0,1,1,79,2,94,
scooby_state_47133d|10|0 81,2,1,1,1,2,0,1,0,0,0,3,0,1,1,94,
scooby_state_47133d|13|0 90,0,0,1,0,1,1,0,0,0,0,0,0,0,0,93,
scooby_state_47133d|30|0 88,0,0,0,0,0,0,0,0,0,1,1,2,0,1,93,
scooby_state_55bb13|31|0 74,1,0,1,0,1,0,1,0,2,0,11,0,1,1,93,
scooby_state_55bb13|43|0 68,1,0,1,3,3,0,2,0,1,3,5,1,1,4,93,
scooby_state_55bb13|8|0 72,0,0,0,1,4,0,4,0,0,0,6,3,2,0,92,
scooby_state_621f26|60|0 29,30,3,2,1,1,2,2,2,1,2,5,1,3,8,92,
scooby_state_47133d|2|0 84,0,0,0,0,1,1,1,1,0,1,0,1,0,1,91,
scooby_state_55bb13|16|0 82,0,1,0,2,1,0,0,0,1,0,2,1,1,0,91,
scooby_state_55bb13|30|0 72,1,1,0,0,2,0,0,0,3,0,9,2,1,0,91,
scooby_state_548420|16|0 90,1,0,0,0,0,0,0,0,0,0,0,0,0,0,91,
scooby_state_55bb13|63|0 77,0,3,0,2,1,0,0,0,0,0,3,4,1,0,91,
scooby_state_47133d|50|0 88,0,0,0,0,0,0,0,0,1,0,0,1,0,0,90,
scooby_state_47133d|23|0 76,1,2,0,0,2,1,0,1,0,1,1,3,1,1,90,
scooby_state_47133d|11|0 83,1,0,1,0,0,0,1,1,0,0,2,0,0,1,90,
scooby_state_620961|24|0 55,1,1,17,0,3,1,0,2,0,1,5,0,0,4,90,
scooby_state_47133d|46|0 81,0,0,0,0,0,1,0,2,0,3,0,1,0,2,90,
scooby_state_47133d|16|0 77,4,1,0,1,1,0,0,1,1,0,0,0,2,2,90,
scooby_state_47133d|22|0 83,0,2,0,0,0,1,0,0,0,1,0,2,0,0,89,
scooby_state_549030|0|0 7,5,1,9,6,5,5,6,7,8,4,14,3,2,7,89,
scooby_state_55bb13|3|0 70,1,3,3,1,1,0,0,4,0,0,4,1,1,0,89,
scooby_state_55b6eb|29|0 40,5,2,4,3,3,4,4,3,1,2,6,7,1,4,89,
scooby_state_47133d|14|0 84,0,0,1,0,1,0,1,1,0,0,0,0,1,0,89,
scooby_state_55003d|4|0 89,0,0,0,0,0,0,0,0,0,0,0,0,0,0,89,
scooby_state_47133d|17|0 81,2,0,1,0,1,0,0,1,1,1,0,0,0,1,89,
scooby_state_55bb13|6|0 78,0,0,1,0,2,0,0,0,0,0,4,0,0,3,88,
scooby_state_55bb13|15|0 69,0,2,2,0,2,0,0,0,1,0,9,2,1,0,88,
scooby_state_47133d|48|0 83,0,0,1,0,1,0,0,0,0,0,2,0,0,1,88,
scooby_state_47133d|30|4 3,1,5,7,3,13,5,7,10,4,6,2,13,0,8,87,
scooby_state_55bb13|21|0 69,1,0,1,2,1,1,0,0,2,0,7,1,0,2,87,
scooby_state_55bb13|42|0 62,1,1,3,2,0,3,0,0,0,0,10,2,1,1,86,
scooby_state_47133d|40|9 63,0,5,1,3,1,2,0,0,2,1,5,0,0,3,86,
scooby_state_4ea019|54|1 4,82,0,0,0,0,0,0,0,0,0,0,0,0,0,86,
scooby_state_55bb13|4|0 53,0,3,8,1,3,5,0,3,0,0,4,1,2,3,86,
scooby_state_55bb13|27|0 62,0,3,2,0,1,2,1,0,1,0,7,2,2,2,85,
scooby_state_62919a|25|12 13,0,6,4,4,6,7,3,5,5,7,3,3,7,12,85,
scooby_state_47133d|42|0 78,0,0,2,0,2,0,0,1,0,0,0,1,1,0,85,
scooby_state_47133d|51|0 76,1,1,1,0,0,1,0,0,1,0,1,1,1,1,85,
scooby_state_55bb13|37|0 68,0,1,1,1,4,0,0,0,1,0,2,0,3,3,84,
scooby_state_47133d|32|0 79,0,0,1,0,1,1,0,0,0,0,1,0,0,1,84,
scooby_state_47e5da|24|0 45,0,0,0,0,0,0,0,0,0,0,20,0,19,0,84,
scooby_state_55bb13|60|0 65,0,3,2,2,2,0,2,3,1,0,2,1,0,1,84,
scooby_state_550ff8|62|1 84,0,0,0,0,0,0,0,0,0,0,0,0,0,0,84,
scooby_state_622002|0|0 2,0,3,0,4,6,6,8,9,6,3,3,14,5,14,83,
scooby_state_47133d|29|0 77,0,0,0,0,0,0,0,0,1,1,0,2,2,0,83,
scooby_state_47133d|54|0 78,1,1,1,0,0,1,0,0,0,0,0,0,0,1,83,
scooby_state_4441eb|4|0 1,32,5,7,5,1,2,4,5,3,3,1,4,3,6,82,
scooby_state_47133d|15|0 76,1,1,1,0,0,1,0,0,1,0,0,0,0,1,82,
scooby_state_47133d|47|0 75,0,1,1,0,1,1,0,0,1,1,1,0,0,0,82,
scooby_state_550191|6|1 15,0,4,5,4,2,5,2,2,5,4,27,0,1,6,82,
scooby_state_47133d|33|0 72,2,1,0,3,1,2,0,0,0,1,0,0,0,0,82,
scooby_state_55bb13|57|0 67,0,3,0,0,1,0,1,0,0,0,4,2,2,2,82,
scooby_state_55bb13|39|0 67,0,2,4,0,1,4,0,0,0,0,3,0,0,0,81,
scooby_state_55bb13|11|0 66,0,0,2,1,1,2,0,0,2,0,4,0,1,2,81,
scooby_state_49c1b0|6|0 81,0,0,0,0,0,0,0,0,0,0,0,0,0,0,81,
scooby_state_55b6fe|25|-1 1,0,4,0,1,1,0,0,1,0,0,2,0,70,1,81,
scooby_state_55bb13|18|0 66,0,0,3,1,3,1,3,0,0,0,2,1,1,0,81,
scooby_state_55bb13|14|0 70,0,1,0,0,0,0,0,0,1,0,5,2,0,2,81,
scooby_state_47133d|43|0 70,1,2,0,0,2,0,1,0,0,0,1,0,1,2,80,
scooby_state_47133d|25|0 74,0,0,0,0,1,0,0,0,0,0,0,2,1,2,80,
scooby_state_55b6eb|47|0 40,3,0,1,2,4,2,4,2,4,3,2,5,2,6,80,
scooby_state_55bb13|17|0 68,0,1,2,1,1,2,0,0,2,0,2,0,1,0,80,
scooby_state_6291c1|7|0 0,80,0,0,0,0,0,0,0,0,0,0,0,0,0,80,
scooby_state_55bb13|0|0 56,0,1,1,2,1,0,1,0,3,0,5,3,4,3,80,
scooby_state_55bb13|13|0 63,0,4,0,2,2,0,0,0,1,0,1,1,4,1,79,
scooby_state_47133d|3|0 77,0,0,0,0,0,0,0,0,0,1,1,0,0,0,79,
scooby_state_47133d|12|0 70,2,0,0,0,0,0,1,1,1,0,0,1,0,2,78,
scooby_state_47133d|35|0 72,0,1,0,0,0,0,2,0,0,1,1,1,0,0,78,
scooby_state_55bb13|40|0 58,0,2,3,0,0,3,0,2,2,0,3,2,2,1,78,
scooby_state_55bb13|22|0 65,0,0,1,2,1,0,1,0,1,0,3,1,2,1,78,
scooby_state_55bb13|20|0 62,0,1,2,0,2,2,2,0,0,0,3,3,0,1,78,
scooby_state_55bb13|61|0 62,0,2,0,3,1,0,0,1,1,0,5,0,2,1,78,
scooby_state_55bb13|53|0 66,0,1,1,0,1,0,0,0,0,0,4,3,0,2,78,
scooby_state_445142|5|0 1,0,0,1,0,0,0,0,1,0,1,1,1,72,0,78,
scooby_state_55bb13|33|0 62,0,1,0,1,1,0,0,0,0,4,4,0,1,4,78,
scooby_state_4ea019|11|1 8,68,0,0,0,0,0,0,1,0,0,0,0,0,0,77,
scooby_state_443f00|60|0 77,0,0,0,0,0,0,0,0,0,0,0,0,0,0,77,
scooby_state_55100a|4|0 55,0,0,1,2,1,1,2,4,1,4,0,0,0,6,77,
scooby_state_55bb13|5|0 66,0,0,1,1,0,0,0,0,4,0,2,0,1,2,77,
scooby_state_4ea019|35|1 6,71,0,0,0,0,0,0,0,0,0,0,0,0,0,77,
scooby_state_47133d|38|8 29,3,2,3,1,2,9,2,3,5,5,5,0,0,8,77,
scooby_state_55bb13|9|0 60,0,1,0,2,1,0,0,0,4,0,3,0,1,5,77,
scooby_state_47133d|56|17 0,0,7,1,2,4,1,4,1,3,3,3,4,41,3,77,
scooby_state_47133d|34|0 74,0,0,1,0,0,1,0,0,0,0,0,0,0,1,77,
scooby_state_47133d|24|0 67,1,0,1,0,1,1,0,1,0,1,1,0,0,2,76,
scooby_state_55bb13|51|0 62,0,1,0,1,1,0,0,0,3,0,4,2,0,2,76,
scooby_state_4ea019|13|1 3,73,0,0,0,0,0,0,0,0,0,0,0,0,0,76,
scooby_state_623f09|52|0 5,7,0,11,5,1,2,1,2,3,3,1,29,2,4,76,
scooby_state_550ff8|9|-17 76,0,0,0,0,0,0,0,0,0,0,0,0,0,0,76,
scooby_state_55bb13|35|0 61,1,1,2,1,1,2,0,0,0,0,6,0,1,0,76,
scooby_state_55bb13|62|0 66,0,0,1,1,0,0,0,0,0,0,1,1,3,3,76,
scooby_state_47133d|21|0 71,0,0,0,0,0,1,0,1,1,0,0,1,0,0,75,
scooby_state_54fefc|17|0 75,0,0,0,0,0,0,0,0,0,0,0,0,0,0,75,
scooby_state_55bb13|52|0 64,1,0,1,2,0,0,0,0,1,0,4,0,1,1,75,
scooby_state_47133d|55|0 70,1,0,1,0,0,1,0,0,0,0,0,0,1,0,74,
scooby_state_4ea019|39|1 2,72,0,0,0,0,0,0,0,0,0,0,0,0,0,74,
scooby_state_556420|16|16 0,0,6,6,5,6,2,3,7,4,7,3,5,6,14,74,
scooby_state_4ea019|61|1 7,67,0,0,0,0,0,0,0,0,0,0,0,0,0,74,
scooby_state_4ea019|8|1 4,70,0,0,0,0,0,0,0,0,0,0,0,0,0,74,
scooby_state_550ff8|47|1 73,0,0,0,0,0,0,0,0,0,0,0,0,0,0,73,
scooby_state_47133d|37|0 70,0,1,1,0,0,0,0,0,0,0,0,0,1,0,73,
scooby_state_41d1f7|10|0 50,2,1,1,1,1,2,0,0,0,1,3,3,7,1,73,
scooby_state_47133d|62|0 65,2,0,0,1,0,0,2,0,0,0,1,0,2,0,73,
scooby_state_47133d|57|0 66,0,1,1,2,0,0,0,0,1,1,0,0,0,1,73,
scooby_state_47133d|44|0 64,1,0,1,1,1,1,1,0,1,2,0,0,0,0,73,
scooby_state_4ea019|45|1 6,65,0,0,0,0,0,0,0,0,1,0,0,0,0,72,
scooby_state_54fefc|15|0 70,0,0,0,0,0,0,1,0,1,0,0,0,0,0,72,
scooby_state_47133d|63|0 65,1,1,1,0,1,0,0,0,0,0,1,1,0,1,72,
scooby_state_47133d|46|12 48,0,0,0,0,0,0,0,0,0,0,0,0,24,0,72,
scooby_state_4ea019|16|1 2,69,0,0,0,0,1,0,0,0,0,0,0,0,0,72,
scooby_state_54fefc|26|18 70,1,0,0,0,0,0,0,0,0,0,0,0,1,0,72,
scooby_state_55bb13|36|0 57,0,0,2,1,1,0,0,0,2,0,5,2,1,1,72,
scooby_state_4ea019|36|1 3,69,0,0,0,0,0,0,0,0,0,0,0,0,0,72,
scooby_state_4ea019|4|1 4,67,0,0,0,0,0,0,0,0,0,0,0,0,0,71,
scooby_state_4ea019|48|1 6,65,0,0,0,0,0,0,0,0,0,0,0,0,0,71,
scooby_state_47133d|59|0 63,1,3,0,1,1,0,0,0,0,0,1,0,0,1,71,
scooby_state_4ea019|21|1 5,63,0,0,1,0,0,0,0,0,0,0,0,0,1,70,
scooby_state_623f09|52|-7 0,1,0,4,6,6,3,2,3,4,4,23,3,1,10,70,
scooby_state_4ea019|50|1 7,62,0,0,0,0,1,0,0,0,0,0,0,0,0,70,
scooby_state_47133d|50|14 0,13,5,6,8,4,2,1,1,4,3,10,9,1,2,69,
scooby_state_4ea019|32|1 6,63,0,0,0,0,0,0,0,0,0,0,0,0,0,69,
scooby_state_550ff8|63|1 69,0,0,0,0,0,0,0,0,0,0,0,0,0,0,69,
scooby_state_4ea019|14|1 5,64,0,0,0,0,0,0,0,0,0,0,0,0,0,69,
scooby_state_47133d|49|0 65,1,2,0,0,0,0,1,0,0,0,0,0,0,0,69,
scooby_state_55b6eb|4|0 38,3,1,2,2,0,2,1,3,1,2,3,8,0,3,69,
scooby_state_550ff8|46|-17 69,0,0,0,0,0,0,0,0,0,0,0,0,0,0,69,
scooby_state_63f85a|6|2 66,1,0,0,1,0,0,0,0,0,0,0,0,0,1,69,
scooby_state_4ea019|57|1 1,68,0,0,0,0,0,0,0,0,0,0,0,0,0,69,
scooby_state_47133d|32|5 4,1,4,2,6,6,6,5,3,3,8,5,5,3,8,69,
scooby_state_550ff8|28|-17 69,0,0,0,0,0,0,0,0,0,0,0,0,0,0,69,
scooby_state_55bb13|58|0 49,0,2,1,2,1,0,0,1,1,0,4,3,0,4,68,
scooby_state_416eb9|8|0 61,0,2,0,0,1,0,0,0,1,1,0,0,2,0,68,
scooby_state_47133d|56|0 56,1,0,0,1,0,1,1,0,2,1,1,0,2,2,68,
scooby_state_550ff8|54|1 67,0,1,0,0,0,0,0,0,0,0,0,0,0,0,68,
scooby_state_41cc81|5|0 68,0,0,0,0,0,0,0,0,0,0,0,0,0,0,68,
scooby_state_4ea019|6|1 0,68,0,0,0,0,0,0,0,0,0,0,0,0,0,68,
scooby_state_4ea019|52|1 5,63,0,0,0,0,0,0,0,0,0,0,0,0,0,68,
scooby_state_62241f|16|0 1,7,1,5,4,2,5,1,1,4,5,1,4,21,6,68,
scooby_state_4ea019|25|1 5,63,0,0,0,0,0,0,0,0,0,0,0,0,0,68,
scooby_state_550ff8|48|1 68,0,0,0,0,0,0,0,0,0,0,0,0,0,0,68,
scooby_state_55bb13|38|0 55,0,0,1,2,3,0,0,0,1,0,3,2,1,0,68,
scooby_state_4ea019|22|1 1,66,0,0,0,0,0,0,0,0,0,0,0,0,0,67,
scooby_state_5432c8|2|0 14,33,0,2,3,1,1,0,5,1,1,2,0,1,3,67,
scooby_state_4117af|10|-2 1,0,1,1,1,0,6,0,1,2,0,51,0,3,0,67,
scooby_state_550ff8|44|-17 67,0,0,0,0,0,0,0,0,0,0,0,0,0,0,67,
scooby_state_55bb13|10|0 54,0,3,0,4,1,0,0,0,1,0,1,1,2,0,67,
scooby_state_55b745|4|-21 67,0,0,0,0,0,0,0,0,0,0,0,0,0,0,67,
scooby_state_550075|18|15 0,60,1,0,0,1,0,1,1,1,0,0,0,2,0,67,
scooby_state_4ea019|31|1 4,61,0,0,0,0,0,0,0,0,0,0,0,1,0,66,
scooby_state_54fefc|0|0 66,0,0,0,0,0,0,0,0,0,0,0,0,0,0,66,
scooby_state_550ff8|5|-17 64,0,1,0,0,0,0,0,0,0,0,0,0,0,0,65,
scooby_state_54fefc|7|0 64,0,1,0,0,0,0,0,0,0,0,0,0,0,0,65,
scooby_state_54fefc|63|18 61,0,0,1,0,0,2,1,0,0,0,0,0,0,0,65,
scooby_state_4ea019|56|1 3,62,0,0,0,0,0,0,0,0,0,0,0,0,0,65,
scooby_state_4ea019|10|1 5,60,0,0,0,0,0,0,0,0,0,0,0,0,0,65,
scooby_state_558405|16|0 38,27,0,0,0,0,0,0,0,0,0,0,0,0,0,65,
scooby_state_4ea019|24|1 4,61,0,0,0,0,0,0,0,0,0,0,0,0,0,65,
scooby_state_4ea019|33|1 2,62,0,0,0,0,0,0,1,0,0,0,0,0,0,65,
scooby_state_4ea019|53|1 4,60,0,0,0,0,0,0,0,0,0,0,0,0,0,64,
scooby_state_4ea019|15|1 3,61,0,0,0,0,0,0,0,0,0,0,0,0,0,64,
scooby_state_47133d|41|0 58,1,0,0,1,0,0,0,1,0,1,1,0,0,1,64,
scooby_state_4ea019|5|1 4,60,0,0,0,0,0,0,0,0,0,0,0,0,0,64,
scooby_state_54fefc|2|0 63,0,1,0,0,0,0,0,0,0,0,0,0,0,0,64,
scooby_state_47133d|7|0 62,0,0,0,0,0,0,0,1,0,0,0,0,0,1,64,
scooby_state_47133d|58|18 0,0,10,10,5,4,4,6,4,3,2,3,1,4,8,64,
scooby_state_54fe9b|0|0 64,0,0,0,0,0,0,0,0,0,0,0,0,0,0,64,
scooby_state_4ea019|2|1 2,62,0,0,0,0,0,0,0,0,0,0,0,0,0,64,
scooby_state_47133d|58|0 54,0,1,2,1,0,2,0,0,1,1,0,1,0,1,64,
scooby_state_41cc78|3|0 49,2,1,2,1,0,0,0,1,1,0,2,2,0,3,64,
scooby_state_4ea019|58|1 6,58,0,0,0,0,0,0,0,0,0,0,0,0,0,64,
scooby_state_550ff8|49|1 63,0,0,0,0,0,0,0,0,0,0,0,0,0,0,63,
scooby_state_4ea019|29|1 5,58,0,0,0,0,0,0,0,0,0,0,0,0,0,63,
scooby_state_550ff8|8|-17 63,0,0,0,0,0,0,0,0,0,0,0,0,0,0,63,
scooby_state_444004|0|0 42,0,2,3,2,1,2,0,0,1,2,6,0,0,2,63,
scooby_state_50754a|3|2 1,0,1,5,3,2,4,0,2,1,1,18,14,9,2,63,
scooby_state_5432c8|0|0 12,36,2,6,0,0,0,1,2,1,2,1,0,0,0,63,
scooby_state_550ff8|18|-17 63,0,0,0,0,0,0,0,0,0,0,0,0,0,0,63,
scooby_state_550ff8|55|1 62,0,0,0,0,0,0,0,0,0,0,0,0,0,0,62,
scooby_state_41cc81|24|0 62,0,0,0,0,0,0,0,0,0,0,0,0,0,0,62,
scooby_state_54fefc|22|18 59,0,0,0,1,1,0,0,0,1,0,0,0,0,0,62,
scooby_state_54fefc|61|18 57,1,0,0,0,0,1,1,0,0,0,1,1,0,0,62,
scooby_state_550ff8|27|-17 62,0,0,0,0,0,0,0,0,0,0,0,0,0,0,62,
scooby_state_550ff8|4|-17 62,0,0,0,0,0,0,0,0,0,0,0,0,0,0,62,
scooby_state_54fefc|45|18 59,0,0,0,0,1,1,0,0,0,0,0,0,1,0,62,
scooby_state_4ea019|40|1 2,60,0,0,0,0,0,0,0,0,0,0,0,0,0,62,
scooby_state_550ff8|22|-17 62,0,0,0,0,0,0,0,0,0,0,0,0,0,0,62,
scooby_state_4ea019|46|1 1,60,0,0,0,0,0,0,0,0,0,0,0,0,0,61,
scooby_state_4ea019|49|1 3,58,0,0,0,0,0,0,0,0,0,0,0,0,0,61,
scooby_state_55bb13|50|0 48,1,1,1,2,1,0,0,0,2,0,4,0,1,0,61,
scooby_state_47133d|54|16 4,4,0,4,4,3,6,1,5,6,2,6,8,1,7,61,
scooby_state_41cc78|4|0 49,2,2,0,0,0,0,0,2,1,2,1,0,1,1,61,
scooby_state_54fefc|25|18 60,0,0,0,0,0,0,0,0,0,0,1,0,0,0,61,
scooby_state_54fe9b|1|0 61,0,0,0,0,0,0,0,0,0,0,0,0,0,0,61,
scooby_state_54fefc|3|0 61,0,0,0,0,0,0,0,0,0,0,0,0,0,0,61,
scooby_state_4ea019|26|1 2,58,0,0,0,0,0,0,0,0,1,0,0,0,0,61,
scooby_state_471394|46|0 52,1,0,2,1,0,1,1,1,1,1,0,0,0,0,61,
scooby_state_4ea019|55|1 7,52,0,0,0,0,0,0,0,0,0,1,0,0,0,60,
scooby_state_4ea019|23|1 2,58,0,0,0,0,0,0,0,0,0,0,0,0,0,60,
scooby_state_550ff8|37|-17 60,0,0,0,0,0,0,0,0,0,0,0,0,0,0,60,
scooby_state_4ea019|38|1 2,58,0,0,0,0,0,0,0,0,0,0,0,0,0,60,
scooby_state_54fefc|39|18 60,0,0,0,0,0,0,0,0,0,0,0,0,0,0,60,
scooby_state_54fefc|44|18 60,0,0,0,0,0,0,0,0,0,0,0,0,0,0,60,
scooby_state_47133d|61|0 52,2,1,1,0,1,0,0,0,0,0,2,1,0,0,60,
scooby_state_621e83|59|7 2,0,0,3,12,3,4,2,3,2,2,10,2,5,10,60,
scooby_state_54fefc|16|0 60,0,0,0,0,0,0,0,0,0,0,0,0,0,0,60,
scooby_state_41cc81|4|0 60,0,0,0,0,0,0,0,0,0,0,0,0,0,0,60,
scooby_state_550ff8|12|-17 59,0,0,0,0,0,0,0,0,0,0,0,0,0,0,59,
scooby_state_4ea019|19|1 4,55,0,0,0,0,0,0,0,0,0,0,0,0,0,59,
scooby_state_54fefc|35|18 59,0,0,0,0,0,0,0,0,0,0,0,0,0,0,59,
scooby_state_47133d|60|0 53,1,0,1,1,0,0,0,0,0,1,1,1,0,0,59,
scooby_state_54fefc|5|0 58,0,0,0,0,0,0,0,0,1,0,0,0,0,0,59,
scooby_state_41cc81|1|0 59,0,0,0,0,0,0,0,0,0,0,0,0,0,0,59,
scooby_state_4ea019|60|1 2,57,0,0,0,0,0,0,0,0,0,0,0,0,0,59,
scooby_state_4ea019|51|1 3,56,0,0,0,0,0,0,0,0,0,0,0,0,0,59,
scooby_state_4ea019|63|1 3,56,0,0,0,0,0,0,0,0,0,0,0,0,0,59,
scooby_state_550ff8|34|-17 59,0,0,0,0,0,0,0,0,0,0,0,0,0,0,59,
scooby_state_4ea019|42|1 4,54,0,0,0,0,0,0,0,0,0,0,0,1,0,59,
scooby_state_550ff8|0|-17 58,0,0,0,0,0,0,0,0,0,0,0,0,0,0,58,
scooby_state_4ea019|9|1 4,54,0,0,0,0,0,0,0,0,0,0,0,0,0,58,
scooby_state_550075|18|0 0,37,4,0,1,1,1,0,0,0,0,14,0,0,0,58,
scooby_state_41cc81|0|0 58,0,0,0,0,0,0,0,0,0,0,0,0,0,0,58,
scooby_state_47133d|52|15 23,14,2,1,1,1,1,1,2,2,1,0,1,5,3,58,
scooby_state_445148|5|0 58,0,0,0,0,0,0,0,0,0,0,0,0,0,0,58,
scooby_state_41cc78|15|0 43,2,2,0,2,2,0,1,0,1,0,1,1,0,3,58,
scooby_state_4117af|13|2 3,0,0,1,0,0,0,0,0,0,0,37,0,16,1,58,
scooby_state_41cc81|23|0 58,0,0,0,0,0,0,0,0,0,0,0,0,0,0,58,
scooby_state_41cc81|18|0 58,0,0,0,0,0,0,0,0,0,0,0,0,0,0,58,
scooby_state_47135d|4|0 53,0,0,1,1,0,0,0,1,0,1,0,0,0,1,58,
scooby_state_4ea019|37|1 0,58,0,0,0,0,0,0,0,0,0,0,0,0,0,58,
scooby_state_471359|4|0 54,0,0,0,1,1,0,1,0,0,1,0,0,0,0,58,
scooby_state_4712af|40|0 26,4,1,2,2,1,1,1,1,1,2,6,3,4,2,57,
scooby_state_54fefc|8|0 57,0,0,0,0,0,0,0,0,0,0,0,0,0,0,57,
scooby_state_47135d|63|0 50,0,0,0,1,1,0,0,1,0,1,1,0,1,1,57,
scooby_state_41cc81|33|0 57,0,0,0,0,0,0,0,0,0,0,0,0,0,0,57,
scooby_state_54fefc|1|0 57,0,0,0,0,0,0,0,0,0,0,0,0,0,0,57,
scooby_state_47135d|26|0 44,1,2,0,1,0,1,1,2,2,0,1,0,0,2,57,
scooby_state_550ff8|32|-17 57,0,0,0,0,0,0,0,0,0,0,0,0,0,0,57,
scooby_state_41cc78|5|0 40,1,1,0,0,0,0,1,2,0,1,3,3,0,5,57,
scooby_state_55b1e5|39|0 0,26,2,1,0,0,0,0,0,0,0,0,28,0,0,57,
scooby_state_550ff8|1|-17 57,0,0,0,0,0,0,0,0,0,0,0,0,0,0,57,
scooby_state_4ea019|34|1 5,51,0,0,0,0,0,0,0,0,0,0,0,0,0,56,
scooby_state_550ff8|45|-17 56,0,0,0,0,0,0,0,0,0,0,0,0,0,0,56,
scooby_state_4ea019|7|1 6,49,0,0,0,0,0,0,0,0,0,0,1,0,0,56,
scooby_state_4ea019|41|1 3,53,0,0,0,0,0,0,0,0,0,0,0,0,0,56,
scooby_state_54fefc|21|18 53,0,0,1,0,0,0,0,0,0,0,0,0,0,2,56,
scooby_state_54fefc|51|18 56,0,0,0,0,0,0,0,0,0,0,0,0,0,0,56,
scooby_state_54fefc|18|18 55,0,0,0,0,0,0,0,0,0,0,0,0,0,1,56,
scooby_state_41cc78|40|0 35,2,1,0,1,1,0,2,0,1,1,1,1,1,8,55,
scooby_state_550ff8|57|1 55,0,0,0,0,0,0,0,0,0,0,0,0,0,0,55,
scooby_state_4ea019|28|1 5,50,0,0,0,0,0,0,0,0,0,0,0,0,0,55,
scooby_state_4ea019|44|1 1,54,0,0,0,0,0,0,0,0,0,0,0,0,0,55,
scooby_state_550ff8|29|-17 55,0,0,0,0,0,0,0,0,0,0,0,0,0,0,55,
scooby_state_4ea019|59|1 4,51,0,0,0,0,0,0,0,0,0,0,0,0,0,55,
scooby_state_41cc81|39|0 55,0,0,0,0,0,0,0,0,0,0,0,0,0,0,55,
scooby_state_54fefc|54|18 53,0,0,0,0,0,0,0,0,0,1,0,0,1,0,55,
scooby_state_41cc78|1|0 43,0,2,0,0,0,2,0,0,0,0,1,0,1,6,55,
scooby_state_550ff8|16|-17 55,0,0,0,0,0,0,0,0,0,0,0,0,0,0,55,
scooby_state_550ff8|52|1 55,0,0,0,0,0,0,0,0,0,0,0,0,0,0,55,
scooby_state_471359|39|-1 48,2,0,3,0,0,1,0,0,0,0,0,0,0,1,55,
scooby_state_4ea019|27|1 2,53,0,0,0,0,0,0,0,0,0,0,0,0,0,55,
scooby_state_41cc81|60|0 54,0,0,0,0,0,0,0,0,0,0,0,0,0,0,54,
scooby_state_471394|43|0 48,0,0,1,2,0,1,1,0,0,1,0,0,0,0,54,
scooby_state_4ea019|18|1 1,51,0,0,0,1,0,0,0,0,1,0,0,0,0,54,
scooby_state_471394|44|0 41,0,1,1,1,2,0,2,1,0,2,0,1,1,1,54,
scooby_state_4ea019|62|1 3,51,0,0,0,0,0,0,0,0,0,0,0,0,0,54,
scooby_state_54fefc|29|18 52,0,0,0,0,0,0,0,0,1,0,0,1,0,0,54,
scooby_state_54fefc|13|0 54,0,0,0,0,0,0,0,0,0,0,0,0,0,0,54,
scooby_state_41cc81|58|0 53,0,0,0,0,0,0,0,0,0,0,0,0,0,0,53,
scooby_state_550ff8|50|1 53,0,0,0,0,0,0,0,0,0,0,0,0,0,0,53,
scooby_state_54fefc|43|18 52,0,0,0,0,0,0,0,1,0,0,0,0,0,0,53,
scooby_state_416eb9|7|0 48,0,0,0,1,0,0,1,0,1,1,0,1,0,0,53,
scooby_state_41cc81|14|0 53,0,0,0,0,0,0,0,0,0,0,0,0,0,0,53,
scooby_state_411c4a|45|0 7,0,1,1,0,0,1,1,0,0,1,2,38,0,1,53,
scooby_state_54fefc|46|18 51,0,0,1,0,0,0,1,0,0,0,0,0,0,0,53,
scooby_state_5432c8|7|0 9,25,0,1,2,0,1,1,5,2,0,2,1,2,2,53,
scooby_state_550ff8|26|-17 53,0,0,0,0,0,0,0,0,0,0,0,0,0,0,53,
scooby_state_4ea019|30|1 2,51,0,0,0,0,0,0,0,0,0,0,0,0,0,53,
scooby_state_4712af|12|0 37,3,2,0,1,0,0,1,2,2,0,2,0,0,3,53,
scooby_state_41cc81|25|0 52,0,0,0,0,0,0,0,0,0,0,0,0,0,0,52,
scooby_state_54fefc|62|18 49,1,0,0,1,0,0,0,0,0,1,0,0,0,0,52,
scooby_state_41cc78|57|0 41,4,1,0,0,0,1,0,1,0,0,2,0,0,2,52,
scooby_state_507581|22|0 0,12,3,3,2,3,3,3,2,2,5,0,1,5,8,52,
scooby_state_550ff8|51|1 52,0,0,0,0,0,0,0,0,0,0,0,0,0,0,52,
scooby_state_41cc78|28|0 41,1,0,0,0,2,0,0,2,0,0,1,1,1,3,52,
scooby_state_54fe9b|8|2 52,0,0,0,0,0,0,0,0,0,0,0,0,0,0,52,
scooby_state_4ea019|20|1 3,49,0,0,0,0,0,0,0,0,0,0,0,0,0,52,
scooby_state_54fefc|33|18 50,0,0,0,0,0,0,0,0,0,1,0,0,1,0,52,
scooby_state_550ff8|43|-17 52,0,0,0,0,0,0,0,0,0,0,0,0,0,0,52,
scooby_state_4ea019|3|1 2,50,0,0,0,0,0,0,0,0,0,0,0,0,0,52,
scooby_state_550ff8|30|-17 52,0,0,0,0,0,0,0,0,0,0,0,0,0,0,52,
scooby_state_4ea019|43|1 3,49,0,0,0,0,0,0,0,0,0,0,0,0,0,52,
scooby_state_550ff8|41|-17 52,0,0,0,0,0,0,0,0,0,0,0,0,0,0,52,
scooby_state_550ff8|31|-17 52,0,0,0,0,0,0,0,0,0,0,0,0,0,0,52,
scooby_state_41cc81|3|0 52,0,0,0,0,0,0,0,0,0,0,0,0,0,0,52,
scooby_state_47133d|39|8 13,2,7,2,2,2,3,3,5,1,2,6,1,0,2,51,
scooby_state_550ff8|60|1 51,0,0,0,0,0,0,0,0,0,0,0,0,0,0,51,
scooby_state_41cc81|30|0 51,0,0,0,0,0,0,0,0,0,0,0,0,0,0,51,
scooby_state_550ff8|7|-17 50,0,0,0,0,0,0,1,0,0,0,0,0,0,0,51,
scooby_state_41d1f7|12|0 33,0,1,1,0,0,0,0,0,2,1,7,3,2,1,51,
scooby_state_41cc81|45|0 50,0,0,0,0,1,0,0,0,0,0,0,0,0,0,51,
scooby_state_41cc78|17|0 46,1,0,0,0,0,1,0,0,0,0,3,0,0,0,51,
scooby_state_416ef9|19|0 51,0,0,0,0,0,0,0,0,0,0,0,0,0,0,51,
scooby_state_471394|34|0 35,3,0,3,0,0,2,1,0,0,2,3,0,0,2,51,
scooby_state_550ff8|13|-17 51,0,0,0,0,0,0,0,0,0,0,0,0,0,0,51,
scooby_state_471359|42|-1 42,0,1,1,0,3,0,1,0,0,0,0,2,0,1,51,
scooby_state_621435|16|0 43,4,0,0,0,0,1,1,0,0,0,0,1,1,0,51,
scooby_state_4ea019|47|1 3,48,0,0,0,0,0,0,0,0,0,0,0,0,0,51,
scooby_state_41cc81|42|0 51,0,0,0,0,0,0,0,0,0,0,0,0,0,0,51,
scooby_state_63f85a|61|1 45,2,0,1,0,1,1,0,0,0,1,0,0,0,0,51,
scooby_state_54fefc|49|18 50,0,0,0,0,0,0,0,0,0,0,1,0,0,0,51,
scooby_state_4ec000|63|1 0,1,0,0,0,0,0,0,0,0,0,4,45,0,0,50,
scooby_state_550ff8|40|-17 50,0,0,0,0,0,0,0,0,0,0,0,0,0,0,50,
scooby_state_4ea019|17|1 1,49,0,0,0,0,0,0,0,0,0,0,0,0,0,50,
scooby_state_471394|48|0 41,2,0,0,0,2,1,0,0,1,0,1,0,0,2,50,
scooby_state_47133d|42|10 0,0,11,7,1,2,3,2,1,5,3,0,9,3,3,50,
scooby_state_54fe9b|17|2 50,0,0,0,0,0,0,0,0,0,0,0,0,0,0,50,
scooby_state_53e1b9|40|0 23,0,25,2,0,0,0,0,0,0,0,0,0,0,0,50,
scooby_state_41cc4c|40|0 1,4,44,0,0,0,1,0,0,0,0,0,0,0,0,50,
scooby_state_54fefc|60|18 49,1,0,0,0,0,0,0,0,0,0,0,0,0,0,50,
scooby_state_41cc78|16|0 38,3,0,0,1,1,1,1,0,0,0,1,0,2,2,50,
scooby_state_41cc81|41|0 50,0,0,0,0,0,0,0,0,0,0,0,0,0,0,50,
scooby_state_5432c8|5|0 9,24,0,4,1,1,1,1,4,1,0,2,1,0,1,50,
scooby_state_54fefc|58|18 50,0,0,0,0,0,0,0,0,0,0,0,0,0,0,50,
scooby_state_550ff8|15|-17 50,0,0,0,0,0,0,0,0,0,0,0,0,0,0,50,
scooby_state_53f5b0|22|0 50,0,0,0,0,0,0,0,0,0,0,0,0,0,0,50,
scooby_state_41cc81|43|0 50,0,0,0,0,0,0,0,0,0,0,0,0,0,0,50,
scooby_state_471394|27|0 39,1,0,0,2,1,0,1,2,1,0,0,2,1,0,50,
scooby_state_4ea019|1|1 1,49,0,0,0,0,0,0,0,0,0,0,0,0,0,50,
scooby_state_471394|20|0 42,0,0,0,2,0,1,1,0,1,2,0,0,0,0,49,
scooby_state_55bb00|44|0 1,1,0,0,0,0,1,0,0,0,0,46,0,0,0,49,
scooby_state_506f34|0|-54 1,0,7,4,3,3,4,2,3,3,3,0,8,1,7,49,
scooby_state_4712af|43|0 40,2,1,1,0,2,0,1,0,0,0,0,0,0,2,49,
scooby_state_550ff8|61|1 49,0,0,0,0,0,0,0,0,0,0,0,0,0,0,49,
scooby_state_41cc78|54|0 34,3,1,0,1,0,0,1,1,0,1,2,1,1,3,49,
scooby_state_54fe9b|28|2 49,0,0,0,0,0,0,0,0,0,0,0,0,0,0,49,
scooby_state_55b6fe|25|0 1,0,0,3,0,3,1,9,0,2,2,0,1,25,2,49,
scooby_state_5501c2|7|1 49,0,0,0,0,0,0,0,0,0,0,0,0,0,0,49,
scooby_state_4712af|32|0 43,0,1,1,1,0,1,0,0,0,1,0,0,0,1,49,
scooby_state_54fefc|10|0 48,0,0,0,0,1,0,0,0,0,0,0,0,0,0,49,
scooby_state_41cc78|42|0 39,2,2,0,0,0,1,0,1,1,0,2,0,0,1,49,
scooby_state_55b160|5|0 2,0,47,0,0,0,0,0,0,0,0,0,0,0,0,49,
scooby_state_444028|45|4 22,1,21,1,0,0,0,0,0,0,0,0,2,2,0,49,
scooby_state_54fefc|24|18 46,0,0,0,0,0,0,0,0,0,0,1,1,0,0,48,
scooby_state_50754a|1|-7 1,0,0,1,0,0,0,1,0,1,0,0,0,44,0,48,
scooby_state_41cc81|2|0 48,0,0,0,0,0,0,0,0,0,0,0,0,0,0,48,
scooby_state_550ff8|2|-17 48,0,0,0,0,0,0,0,0,0,0,0,0,0,0,48,
scooby_state_550ff8|33|-17 48,0,0,0,0,0,0,0,0,0,0,0,0,0,0,48,
scooby_state_550ff8|3|-17 48,0,0,0,0,0,0,0,0,0,0,0,0,0,0,48,
scooby_state_416ef9|2|0 48,0,0,0,0,0,0,0,0,0,0,0,0,0,0,48,
scooby_state_471394|40|0 39,0,1,1,0,1,0,0,1,3,1,1,0,0,0,48,
scooby_state_41cc81|44|0 48,0,0,0,0,0,0,0,0,0,0,0,0,0,0,48,
scooby_state_47135d|56|0 39,1,1,1,0,2,2,0,0,1,0,1,0,0,0,48,
scooby_state_55214d|12|2 1,1,0,1,0,0,0,0,0,1,1,43,0,0,0,48,
scooby_state_624599|63|0 46,1,0,0,0,0,0,0,0,0,0,0,0,0,0,47,
scooby_state_62200b|19|0 4,0,8,0,2,5,3,5,0,4,4,6,0,0,6,47,
scooby_state_4712af|11|0 38,1,0,1,1,1,1,0,0,0,3,0,0,0,1,47,
scooby_state_416ef9|7|0 47,0,0,0,0,0,0,0,0,0,0,0,0,0,0,47,
scooby_state_54fe9b|3|2 47,0,0,0,0,0,0,0,0,0,0,0,0,0,0,47,
scooby_state_5124e1|26|1 0,47,0,0,0,0,0,0,0,0,0,0,0,0,0,47,
scooby_state_54fefc|47|18 44,0,0,0,0,0,0,0,0,1,0,0,1,0,1,47,
scooby_state_550ff8|59|1 46,0,0,1,0,0,0,0,0,0,0,0,0,0,0,47,
scooby_state_4117af|13|0 3,0,0,1,0,0,4,0,0,0,0,39,0,0,0,47,
scooby_state_5432c8|9|0 5,25,1,1,3,0,1,2,5,0,1,0,0,0,3,47,
scooby_state_4712af|7|0 36,0,2,0,0,1,1,0,1,2,2,0,1,0,1,47,
scooby_state_416ef9|4|0 47,0,0,0,0,0,0,0,0,0,0,0,0,0,0,47,
scooby_state_416ef9|31|0 47,0,0,0,0,0,0,0,0,0,0,0,0,0,0,47,
scooby_state_5432c8|8|0 7,29,1,0,0,0,0,0,4,2,0,0,1,1,2,47,
scooby_state_545140|5|0 0,2,27,0,0,0,0,1,0,1,0,0,16,0,0,47,
scooby_state_54fefc|30|18 45,0,0,0,0,0,1,0,0,0,0,0,0,0,1,47,
scooby_state_47133d|44|11 15,1,1,1,2,2,1,3,2,1,4,1,1,10,2,47,
scooby_state_471359|56|0 36,0,0,0,1,1,0,1,0,1,0,2,1,3,1,47,
scooby_state_4117af|9|-3 1,0,0,0,0,1,0,0,0,0,0,34,1,10,0,47,
scooby_state_411c4a|27|0 0,1,0,0,1,0,0,1,1,0,0,2,38,0,2,46,
scooby_state_54fe9b|45|2 46,0,0,0,0,0,0,0,0,0,0,0,0,0,0,46,
scooby_state_471394|7|0 38,2,1,1,0,0,0,1,0,0,0,0,1,0,2,46,
scooby_state_544907|11|2 1,0,0,2,1,0,0,0,0,1,0,0,41,0,0,46,
scooby_state_47135d|56|-1 40,0,0,1,1,1,0,0,0,0,0,1,2,0,0,46,
scooby_state_550ff8|23|-17 46,0,0,0,0,0,0,0,0,0,0,0,0,0,0,46,
scooby_state_41cc81|28|0 46,0,0,0,0,0,0,0,0,0,0,0,0,0,0,46,
scooby_state_54fefc|20|18 45,1,0,0,0,0,0,0,0,0,0,0,0,0,0,46,
scooby_state_5432c8|3|0 4,26,1,2,3,0,0,0,5,0,0,0,1,2,2,46,
scooby_state_416ef9|11|0 46,0,0,0,0,0,0,0,0,0,0,0,0,0,0,46,
scooby_state_41cc81|19|0 46,0,0,0,0,0,0,0,0,0,0,0,0,0,0,46,
scooby_state_4ea019|12|1 1,45,0,0,0,0,0,0,0,0,0,0,0,0,0,46,
scooby_state_54fefc|11|0 46,0,0,0,0,0,0,0,0,0,0,0,0,0,0,46,
scooby_state_416ef9|39|0 46,0,0,0,0,0,0,0,0,0,0,0,0,0,0,46,
scooby_state_4712af|15|0 40,0,1,0,0,1,0,0,0,0,0,0,1,1,2,46,
scooby_state_41cc78|41|0 31,1,1,1,0,1,1,0,1,0,1,3,1,0,4,46,
scooby_state_4712af|47|0 28,2,0,0,1,1,4,1,0,1,2,1,3,0,2,46,
scooby_state_41cc81|8|0 46,0,0,0,0,0,0,0,0,0,0,0,0,0,0,46,
scooby_state_550ff8|24|-17 46,0,0,0,0,0,0,0,0,0,0,0,0,0,0,46,
scooby_state_54fefc|57|18 44,0,0,0,0,0,0,1,0,1,0,0,0,0,0,46,
scooby_state_556495|18|2 4,4,2,2,3,3,2,4,5,4,3,0,2,1,7,46,
scooby_state_4ebac0|43|0 46,0,0,0,0,0,0,0,0,0,0,0,0,0,0,46,
scooby_state_54fefc|4|0 46,0,0,0,0,0,0,0,0,0,0,0,0,0,0,46,
scooby_state_411c5f|24|-3 11,16,0,0,1,1,1,2,3,0,1,3,2,1,4,46,
scooby_state_471394|2|0 36,0,2,0,3,3,1,0,1,0,0,0,0,0,0,46,
scooby_state_41cc78|56|0 31,4,3,1,1,0,1,1,0,0,1,3,0,0,0,46,
scooby_state_444197|56|0 5,2,1,2,2,2,4,3,2,3,3,12,2,0,3,46,
scooby_state_47135d|8|0 34,2,0,1,0,0,0,2,1,0,0,1,1,3,0,45,
scooby_state_41cc81|46|0 45,0,0,0,0,0,0,0,0,0,0,0,0,0,0,45,
scooby_state_54fefc|48|18 44,0,0,0,0,0,0,0,0,0,0,0,0,0,1,45,
scooby_state_47133d|31|5 3,0,3,4,2,3,5,1,4,3,2,7,3,3,2,45,
scooby_state_544acf|43|0 19,0,26,0,0,0,0,0,0,0,0,0,0,0,0,45,
scooby_state_41cc81|40|0 44,0,0,0,0,1,0,0,0,0,0,0,0,0,0,45,
scooby_state_550ff8|6|-17 44,0,0,0,0,1,0,0,0,0,0,0,0,0,0,45,
scooby_state_411b0d|23|0 8,1,4,1,2,2,2,2,4,4,4,2,3,1,5,45,
scooby_state_471394|10|0 40,0,0,0,0,0,1,0,0,1,1,1,0,0,1,45,
scooby_state_54fff8|3|-14 1,0,0,1,1,1,0,1,0,0,0,1,3,35,1,45,
scooby_state_4441eb|42|0 2,19,1,4,1,3,4,1,1,2,2,0,2,1,2,45,
scooby_state_5432c8|12|0 5,27,1,1,1,2,0,0,2,0,1,0,1,0,4,45,
scooby_state_506f34|0|-2 3,0,2,0,3,4,3,5,4,4,4,0,3,4,6,45,
scooby_state_62919a|1|-9 1,44,0,0,0,0,0,0,0,0,0,0,0,0,0,45,
scooby_state_54fefc|9|0 45,0,0,0,0,0,0,0,0,0,0,0,0,0,0,45,
scooby_state_54fe9b|61|2 45,0,0,0,0,0,0,0,0,0,0,0,0,0,0,45,
scooby_state_47133d|33|6 0,42,0,0,0,0,0,0,0,0,0,3,0,0,0,45,
scooby_state_55548c|18|2 10,1,1,3,2,2,2,2,2,2,2,0,7,7,2,45,
scooby_state_4ebb04|44|1 43,1,1,0,0,0,0,0,0,0,0,0,0,0,0,45,
scooby_state_54fefc|50|18 42,1,0,1,0,0,0,0,1,0,0,0,0,0,0,45,
scooby_state_550ff8|14|-17 45,0,0,0,0,0,0,0,0,0,0,0,0,0,0,45,
scooby_state_55b6eb|47|22 2,0,2,1,5,3,8,5,4,3,4,0,1,0,7,45,
scooby_state_471359|56|-1 34,1,2,0,1,0,0,1,1,1,2,1,0,0,1,45,
scooby_state_5521c1|7|1 14,1,0,2,1,12,1,0,0,2,0,5,2,0,5,45,
scooby_state_54fefc|12|0 45,0,0,0,0,0,0,0,0,0,0,0,0,0,0,45,
scooby_state_41cc81|61|0 45,0,0,0,0,0,0,0,0,0,0,0,0,0,0,45,
scooby_state_555400|16|0 0,3,2,1,0,0,0,0,1,0,0,38,0,0,0,45,
scooby_state_47135d|46|0 35,2,0,1,0,1,0,0,0,0,0,0,3,2,1,45,
scooby_state_41cc81|27|0 45,0,0,0,0,0,0,0,0,0,0,0,0,0,0,45,
scooby_state_41cc78|18|0 37,4,0,0,0,0,1,0,1,0,0,0,1,0,1,45,
scooby_state_54fefc|41|18 44,0,0,0,0,0,0,0,0,0,0,0,0,0,1,45,
scooby_state_47135d|7|0 32,1,1,2,0,0,1,0,0,1,0,3,1,0,3,45,
scooby_state_5432c8|4|0 7,27,0,1,0,0,0,0,6,2,0,0,0,0,2,45,
scooby_state_471359|3|-1 35,1,1,1,1,0,1,1,0,1,0,1,1,0,1,45,
scooby_state_41cc81|59|0 44,0,0,0,0,0,1,0,0,0,0,0,0,0,0,45,
scooby_state_471394|55|0 32,1,1,0,0,1,0,2,0,0,0,0,3,1,3,44,
scooby_state_54fefc|32|18 42,1,0,0,0,0,0,0,0,0,0,0,0,1,0,44,
scooby_state_471394|57|0 38,0,1,0,1,1,1,0,1,0,0,0,0,1,0,44,
scooby_state_471394|28|0 40,0,0,1,0,1,0,0,0,0,0,0,1,1,0,44,
scooby_state_471394|47|0 31,2,3,0,0,1,2,2,0,0,2,0,0,0,1,44,
scooby_state_54fefc|6|0 43,1,0,0,0,0,0,0,0,0,0,0,0,0,0,44,
scooby_state_410781|11|0 42,0,0,0,1,0,0,0,0,0,0,0,1,0,0,44,
scooby_state_552182|6|1 5,1,0,0,30,1,2,2,1,0,0,1,1,0,0,44,
scooby_state_54fefc|31|18 42,0,0,0,0,0,0,0,0,0,0,0,1,0,1,44,
scooby_state_471394|13|0 34,0,0,0,2,0,0,0,3,1,0,1,0,0,3,44,
scooby_state_471359|5|-1 33,0,0,0,2,2,0,0,1,0,0,1,1,0,4,44,
scooby_state_555b04|44|1 3,34,7,0,0,0,0,0,0,0,0,0,0,0,0,44,
scooby_state_54fe9b|7|2 44,0,0,0,0,0,0,0,0,0,0,0,0,0,0,44,
scooby_state_554ac0|43|0 1,1,0,0,1,0,0,1,1,0,0,38,0,1,0,44,
scooby_state_41cc81|50|0 44,0,0,0,0,0,0,0,0,0,0,0,0,0,0,44,
scooby_state_550ff8|42|-17 44,0,0,0,0,0,0,0,0,0,0,0,0,0,0,44,
scooby_state_62200b|29|0 5,0,9,0,2,2,1,2,0,6,8,2,0,0,7,44,
scooby_state_41cc81|12|0 44,0,0,0,0,0,0,0,0,0,0,0,0,0,0,44,
scooby_state_55b1c0|26|11 2,0,0,0,0,0,0,0,0,0,0,0,0,42,0,44,
scooby_state_62200b|63|0 11,0,7,0,3,2,4,3,0,6,4,1,0,0,3,44,
scooby_state_471394|60|0 36,2,0,1,0,0,0,0,0,0,2,0,0,1,2,44,
scooby_state_47135d|35|0 38,0,0,1,1,0,0,0,0,1,1,0,1,0,1,44,
scooby_state_471359|63|0 42,0,0,0,0,0,0,0,0,0,0,0,1,1,0,44,
scooby_state_62200b|24|0 6,0,5,0,5,1,8,3,0,4,6,4,0,0,2,44,
scooby_state_550ff8|58|1 44,0,0,0,0,0,0,0,0,0,0,0,0,0,0,44,
scooby_state_41cc78|14|0 34,0,0,0,1,2,1,1,0,0,0,2,0,0,3,44,
scooby_state_4ebaf4|19|0 41,2,0,0,0,0,0,0,0,0,0,0,0,0,0,43,
scooby_state_41cc81|7|0 42,0,0,0,0,0,0,0,0,0,0,0,1,0,0,43,
scooby_state_54fefc|19|18 40,0,0,0,0,0,0,0,0,0,0,0,2,0,1,43,
scooby_state_54fe9b|2|2 43,0,0,0,0,0,0,0,0,0,0,0,0,0,0,43,
scooby_state_5124e1|62|1 0,43,0,0,0,0,0,0,0,0,0,0,0,0,0,43,
scooby_state_550ff8|39|-17 42,0,0,1,0,0,0,0,0,0,0,0,0,0,0,43,
scooby_state_4712af|31|0 25,1,2,1,2,0,0,1,3,2,1,2,2,0,1,43,
scooby_state_62200b|34|0 7,0,5,0,4,4,3,1,1,5,7,3,0,0,3,43,
scooby_state_41cc81|48|0 43,0,0,0,0,0,0,0,0,0,0,0,0,0,0,43,
scooby_state_5432c8|51|0 6,24,2,4,0,0,0,2,2,0,0,1,0,0,2,43,
scooby_state_4712af|36|0 25,4,0,0,0,2,1,0,1,0,0,3,3,2,2,43,
scooby_state_4ebf7c|17|0 0,7,7,4,0,1,2,3,5,2,0,0,10,0,2,43,
scooby_state_41cc78|19|0 34,0,0,0,1,0,0,2,2,0,0,0,0,1,3,43,
scooby_state_41cc81|36|0 43,0,0,0,0,0,0,0,0,0,0,0,0,0,0,43,
scooby_state_5555a4|22|4 6,0,0,0,0,0,0,0,0,0,0,37,0,0,0,43,
scooby_state_444180|6|1 0,1,1,1,2,1,1,0,0,1,0,2,31,0,2,43,
scooby_state_54fefc|14|0 43,0,0,0,0,0,0,0,0,0,0,0,0,0,0,43,
scooby_state_47133d|62|52 25,0,0,0,0,0,0,0,0,0,0,18,0,0,0,43,
scooby_state_41cc78|55|0 33,0,1,1,0,0,1,0,0,1,0,3,0,0,3,43,
scooby_state_41cc81|10|0 43,0,0,0,0,0,0,0,0,0,0,0,0,0,0,43,
scooby_state_4712af|56|0 24,1,0,3,1,1,1,0,0,2,1,2,2,2,3,43,
scooby_state_550ff8|11|-17 43,0,0,0,0,0,0,0,0,0,0,0,0,0,0,43,
scooby_state_62200b|5|0 7,0,4,0,8,2,4,2,0,2,7,4,0,0,3,43,
scooby_state_4712af|19|0 25,0,2,1,0,1,4,2,1,1,0,0,0,1,5,43,
scooby_state_552411|16|9 0,43,0,0,0,0,0,0,0,0,0,0,0,0,0,43,
scooby_state_54fefc|23|18 42,0,0,0,1,0,0,0,0,0,0,0,0,0,0,43,
scooby_state_41cc81|31|0 43,0,0,0,0,0,0,0,0,0,0,0,0,0,0,43,
scooby_state_62200b|50|0 5,0,6,0,4,2,4,2,0,5,2,6,0,0,6,42,
scooby_state_5432c8|1|0 6,18,0,1,0,1,1,0,5,1,0,3,0,0,6,42,
scooby_state_62200b|47|0 4,0,7,0,2,2,5,3,0,6,1,4,1,0,7,42,
scooby_state_550b25|44|0 1,0,30,0,0,0,0,0,0,0,0,11,0,0,0,42,
scooby_state_471394|29|0 37,0,1,0,0,0,0,1,0,1,0,1,0,0,1,42,
scooby_state_4ebf30|60|0 40,0,0,0,0,0,0,0,0,0,0,2,0,0,0,42,
scooby_state_54fefc|40|18 39,1,0,0,0,0,0,0,0,0,0,1,1,0,0,42,
scooby_state_556420|16|0 0,0,0,3,5,2,5,3,0,4,5,2,1,3,9,42,
scooby_state_41cc81|22|0 42,0,0,0,0,0,0,0,0,0,0,0,0,0,0,42,
scooby_state_416ef9|29|0 42,0,0,0,0,0,0,0,0,0,0,0,0,0,0,42,
scooby_state_416ef9|20|0 42,0,0,0,0,0,0,0,0,0,0,0,0,0,0,42,
scooby_state_471394|51|0 34,2,0,0,0,0,2,0,0,1,2,0,1,0,0,42,
scooby_state_624599|60|0 42,0,0,0,0,0,0,0,0,0,0,0,0,0,0,42,
scooby_state_54fe9b|11|2 42,0,0,0,0,0,0,0,0,0,0,0,0,0,0,42,
scooby_state_5432c8|6|0 6,29,0,1,0,0,2,0,1,0,0,1,0,0,2,42,
scooby_state_41cc81|38|0 41,0,0,0,0,0,0,0,1,0,0,0,0,0,0,42,
scooby_state_5124e1|6|1 0,42,0,0,0,0,0,0,0,0,0,0,0,0,0,42,
scooby_state_550ff8|17|-17 42,0,0,0,0,0,0,0,0,0,0,0,0,0,0,42,
scooby_state_62200b|25|0 4,1,4,0,8,1,7,1,1,3,1,7,0,0,4,42,
scooby_state_47133d|47|13 5,0,1,1,3,2,6,5,4,0,4,0,7,0,4,42,
scooby_state_47135d|42|0 31,0,1,1,2,0,1,0,0,2,1,1,0,0,2,42,
scooby_state_62200b|28|0 5,0,8,0,5,0,2,1,2,4,3,6,0,1,5,42,
scooby_state_544914|19|0 0,1,1,0,2,2,2,2,1,1,1,25,2,0,2,42,
scooby_state_47e5da|24|-5 39,0,0,0,0,0,0,0,0,0,0,3,0,0,0,42,
scooby_state_552130|12|2 3,37,0,2,0,0,0,0,0,0,0,0,0,0,0,42,
scooby_state_47135d|54|-1 27,4,0,1,0,0,1,1,0,0,2,2,2,1,1,42,
scooby_state_62200b|32|0 3,0,6,0,3,2,2,5,2,6,6,3,0,0,4,42,
scooby_state_54fe9b|4|2 42,0,0,0,0,0,0,0,0,0,0,0,0,0,0,42,
scooby_state_621e17|60|0 18,4,0,0,1,1,1,2,3,0,1,7,1,3,0,42,
scooby_state_550ff8|53|1 42,0,0,0,0,0,0,0,0,0,0,0,0,0,0,42,
scooby_state_550ff8|25|-17 42,0,0,0,0,0,0,0,0,0,0,0,0,0,0,42,
scooby_state_4ec000|10|1 0,0,0,0,0,0,0,0,0,0,0,5,37,0,0,42,
scooby_state_411c5f|43|-2 10,20,0,2,1,1,1,1,3,1,0,0,1,1,0,42,
scooby_state_62200b|13|0 6,0,7,0,4,2,4,3,0,4,3,4,0,0,5,42,
scooby_state_411b0d|62|0 3,4,6,4,4,2,2,1,1,2,1,3,3,2,4,42,
scooby_state_54fe9b|54|2 41,0,0,0,0,0,0,0,0,0,0,0,0,0,0,41,
scooby_state_47135d|39|-1 24,1,2,2,1,2,2,0,1,0,1,2,0,1,2,41,
scooby_state_54fe9b|27|2 41,0,0,0,0,0,0,0,0,0,0,0,0,0,0,41,
scooby_state_41cc81|26|0 40,0,0,0,0,0,0,0,0,0,0,0,0,0,1,41,
scooby_state_555f38|22|0 32,0,0,0,0,1,0,1,0,0,0,7,0,0,0,41,
scooby_state_54fefc|59|18 39,0,0,0,0,1,1,0,0,0,0,0,0,0,0,41,
scooby_state_624599|9|0 41,0,0,0,0,0,0,0,0,0,0,0,0,0,0,41,
scooby_state_544edb|30|1 18,1,1,3,1,0,0,0,0,3,3,5,2,2,2,41,
scooby_state_5124e1|15|1 0,41,0,0,0,0,0,0,0,0,0,0,0,0,0,41,
scooby_state_64e1e0|7|0 1,1,1,3,2,2,4,3,2,1,3,3,11,0,4,41,
scooby_state_4712af|5|0 25,1,2,0,3,0,0,2,0,0,1,1,3,2,1,41,
scooby_state_471394|8|0 30,0,1,1,0,0,0,0,1,1,1,1,2,3,0,41,
scooby_state_41cc81|15|0 41,0,0,0,0,0,0,0,0,0,0,0,0,0,0,41,
scooby_state_62919a|4|0 0,2,4,4,3,3,2,3,6,3,4,3,0,1,3,41,
scooby_state_62200b|55|0 9,0,7,0,4,2,3,2,0,6,3,1,0,0,4,41,
scooby_state_4712af|14|0 29,3,0,0,0,0,0,2,1,0,0,3,0,3,0,41,
scooby_state_416ef9|0|0 41,0,0,0,0,0,0,0,0,0,0,0,0,0,0,41,
scooby_state_471394|56|0 33,0,0,1,0,0,0,1,1,0,0,1,1,1,2,41,
scooby_state_471359|32|-1 35,0,0,2,0,0,0,0,2,0,0,1,0,1,0,41,
scooby_state_62200b|7|0 5,0,8,0,6,2,2,1,0,6,2,4,0,0,5,41,
scooby_state_444028|41|0 5,3,7,4,2,0,3,0,3,0,1,8,1,1,3,41,
scooby_state_471359|0|-1 37,1,0,0,0,0,0,1,0,0,1,0,0,1,0,41,
scooby_state_54fe9b|15|2 41,0,0,0,0,0,0,0,0,0,0,0,0,0,0,41,
scooby_state_471394|61|0 38,0,0,0,0,0,0,0,0,3,0,0,0,0,0,41,
scooby_state_471394|36|0 34,1,0,0,1,2,0,0,1,0,0,1,1,0,0,41,
scooby_state_47133d|43|10 0,0,5,2,2,3,4,1,3,1,1,0,8,4,7,41,
scooby_state_471359|45|-1 31,1,2,0,1,1,0,0,1,0,0,0,1,1,2,41,
scooby_state_54fefc|34|18 41,0,0,0,0,0,0,0,0,0,0,0,0,0,0,41,
scooby_state_5124e1|1|1 0,41,0,0,0,0,0,0,0,0,0,0,0,0,0,41,
scooby_state_411b0d|14|0 5,6,1,2,3,3,1,1,6,2,3,1,2,0,5,41,
scooby_state_416e72|16|1 5,15,2,4,3,2,1,1,5,0,0,1,0,2,0,41,
scooby_state_471359|44|-1 34,2,0,1,0,0,1,0,0,1,0,0,0,0,1,40,
scooby_state_416e72|57|1 8,15,1,4,1,2,4,0,3,0,0,2,0,0,0,40,
scooby_state_4712ab|5|0 1,3,3,2,1,2,4,2,2,3,3,1,6,2,5,40,
scooby_state_41cc81|35|0 40,0,0,0,0,0,0,0,0,0,0,0,0,0,0,40,
scooby_state_5432c8|14|0 6,23,1,0,0,0,0,0,3,1,0,3,0,0,3,40,
scooby_state_471394|4|0 33,0,1,2,0,0,0,1,0,1,1,1,0,0,0,40,
scooby_state_55b1c0|26|0 6,0,0,0,0,0,0,0,0,0,0,0,0,34,0,40,
scooby_state_62200b|11|0 4,0,8,0,6,3,1,1,0,8,2,4,0,0,3,40,
scooby_state_47135d|49|0 28,1,1,1,1,3,1,1,0,2,0,0,1,0,0,40,
scooby_state_41cc81|51|0 40,0,0,0,0,0,0,0,0,0,0,0,0,0,0,40,
scooby_state_4712af|4|0 25,0,0,1,0,1,1,1,3,2,1,1,1,1,2,40,
scooby_state_62200b|8|0 3,0,9,0,8,2,2,4,0,4,3,3,0,0,2,40,
scooby_state_471359|38|-1 35,0,0,1,0,1,0,1,0,0,0,1,0,0,1,40,
scooby_state_471359|33|-1 31,0,1,1,0,0,0,2,1,1,0,0,0,2,1,40,
scooby_state_41cc78|27|0 27,3,0,0,0,0,0,0,2,0,1,2,1,0,4,40,
scooby_state_62200b|20|0 5,0,5,0,3,3,8,1,0,3,4,2,0,0,6,40,
scooby_state_4ec000|23|1 0,1,0,0,0,0,0,0,0,0,0,4,35,0,0,40,
scooby_state_54fefc|42|18 39,0,0,1,0,0,0,0,0,0,0,0,0,0,0,40,
scooby_state_4ebfa0|19|-3 31,0,1,0,1,1,1,0,0,2,2,0,0,0,1,40,
scooby_state_471359|43|-1 37,0,1,0,0,1,0,0,0,1,0,0,0,0,0,40,
scooby_state_62200b|2|0 5,0,9,0,2,2,4,2,0,3,3,6,0,0,4,40,
scooby_state_550ff8|56|1 40,0,0,0,0,0,0,0,0,0,0,0,0,0,0,40,
scooby_state_471394|0|0 35,0,0,0,0,0,0,0,0,1,2,0,1,1,0,40,
scooby_state_416ef9|10|0 40,0,0,0,0,0,0,0,0,0,0,0,0,0,0,40,
scooby_state_41cc81|37|0 40,0,0,0,0,0,0,0,0,0,0,0,0,0,0,40,
scooby_state_471359|55|-1 31,2,1,0,1,0,1,1,0,0,0,2,0,0,1,40,
scooby_state_4712af|46|0 29,2,0,0,0,1,0,3,0,0,0,0,3,1,1,40,
scooby_state_4712af|51|0 26,2,4,0,0,1,0,0,2,1,1,1,1,1,0,40,
scooby_state_416ef9|12|0 40,0,0,0,0,0,0,0,0,0,0,0,0,0,0,40,
scooby_state_416ef9|56|0 40,0,0,0,0,0,0,0,0,0,0,0,0,0,0,40,
scooby_state_4712af|17|0 29,0,0,0,0,0,0,2,0,0,1,3,2,2,1,40,
scooby_state_4712af|30|0 20,0,1,1,0,0,1,2,4,2,0,2,2,2,3,40,
scooby_state_54fe9b|26|2 39,0,0,0,0,0,0,0,0,0,0,0,0,0,0,39,
scooby_state_471394|25|0 33,0,1,0,0,0,1,0,0,2,0,0,1,1,0,39,
scooby_state_471394|41|0 32,1,1,0,1,0,2,0,1,0,0,0,0,0,1,39,
scooby_state_41cc81|16|0 39,0,0,0,0,0,0,0,0,0,0,0,0,0,0,39,
scooby_state_5432c8|38|0 3,24,0,1,1,2,1,0,1,1,0,3,0,1,1,39,
scooby_state_621e17|44|0 15,2,1,1,0,0,0,1,1,3,1,7,0,4,3,39,
scooby_state_4ec000|30|1 0,1,0,1,0,0,1,0,0,0,0,3,33,0,0,39,
scooby_state_471394|19|0 29,1,1,0,1,2,0,0,1,0,0,3,0,0,1,39,
scooby_state_550ff8|36|-17 39,0,0,0,0,0,0,0,0,0,0,0,0,0,0,39,
scooby_state_416ef9|8|0 39,0,0,0,0,0,0,0,0,0,0,0,0,0,0,39,
scooby_state_550ff8|35|-17 39,0,0,0,0,0,0,0,0,0,0,0,0,0,0,39,
scooby_state_47135d|26|-1 27,2,1,1,0,2,0,2,0,1,1,0,1,0,1,39,
scooby_state_471359|28|-1 30,1,1,1,1,0,0,1,1,1,0,0,1,0,1,39,
scooby_state_50754a|1|-11 31,0,0,0,0,0,0,0,0,0,0,0,0,8,0,39,
scooby_state_64cac3|43|0 2,23,0,0,0,0,0,0,0,0,0,14,0,0,0,39,
scooby_state_471359|4|-1 33,0,1,0,0,1,1,1,0,0,0,0,1,1,0,39,
scooby_state_624599|59|0 39,0,0,0,0,0,0,0,0,0,0,0,0,0,0,39,
scooby_state_416e72|20|1 13,11,2,5,2,0,0,0,0,0,1,1,1,0,3,39,
scooby_state_550ff8|10|-17 39,0,0,0,0,0,0,0,0,0,0,0,0,0,0,39,
scooby_state_544edb|13|1 22,0,0,3,1,2,1,1,0,1,0,5,0,2,1,39,
scooby_state_4ec000|1|1 0,3,0,0,0,0,0,0,0,0,0,0,36,0,0,39,
scooby_state_47133d|47|19 2,0,1,1,3,0,3,0,3,3,4,2,12,2,3,39,
scooby_state_416e72|3|1 10,12,3,4,1,1,1,0,0,2,0,2,0,0,3,39,
scooby_state_621e17|50|0 20,3,1,1,0,1,1,1,1,0,0,3,1,3,3,39,
scooby_state_550ff8|38|-17 39,0,0,0,0,0,0,0,0,0,0,0,0,0,0,39,
scooby_state_54fe9b|53|2 39,0,0,0,0,0,0,0,0,0,0,0,0,0,0,39,
scooby_state_62200b|45|0 4,0,4,0,1,5,6,5,0,1,4,3,0,0,6,39,
scooby_state_54fe9b|46|3 39,0,0,0,0,0,0,0,0,0,0,0,0,0,0,39,
scooby_state_5432c8|58|0 4,15,0,3,1,2,1,1,6,0,0,1,0,1,4,39,
scooby_state_629170|5|0 1,5,3,0,1,1,2,1,3,2,0,2,1,7,10,39,
scooby_state_47e5d4|32|0 23,0,3,1,1,1,0,0,0,3,0,2,2,2,1,39,
scooby_state_471394|1|0 31,0,1,0,0,0,1,3,1,0,0,1,0,1,0,39,
scooby_state_471394|6|0 32,0,0,0,0,1,0,1,0,0,1,0,0,1,3,39,
scooby_state_4ec000|44|1 0,4,0,0,0,0,0,0,0,0,0,1,34,0,0,39,
scooby_state_471359|53|-1 34,0,1,0,1,1,0,1,1,0,0,0,0,0,0,39,
scooby_state_54fe9b|25|2 39,0,0,0,0,0,0,0,0,0,0,0,0,0,0,39,
scooby_state_47133d|56|49 14,24,0,0,0,0,0,0,0,0,0,0,0,0,0,38,
scooby_state_43b43b|54|0 38,0,0,0,0,0,0,0,0,0,0,0,0,0,0,38,
scooby_state_62200b|26|0 4,0,7,0,4,1,3,1,1,4,2,2,0,0,9,38,
scooby_state_471366|47|2 25,0,0,0,0,2,2,2,0,0,2,4,1,0,0,38,
scooby_state_47e5d4|38|0 29,0,0,0,3,0,0,1,0,1,0,0,2,0,2,38,
scooby_state_47135d|2|-1 27,1,0,0,0,2,1,0,2,0,1,0,3,0,1,38,
scooby_state_4712ab|4|0 0,7,1,3,4,5,2,2,1,4,2,0,4,0,3,38,
scooby_state_471359|19|0 30,2,0,0,1,1,1,0,0,0,0,1,0,1,1,38,
scooby_state_471394|3|0 30,1,2,1,0,0,1,1,0,0,0,0,0,1,1,38,
scooby_state_41cc81|21|0 38,0,0,0,0,0,0,0,0,0,0,0,0,0,0,38,
scooby_state_41cc78|0|0 30,0,0,1,0,1,0,0,1,0,2,2,1,0,0,38,
scooby_state_471359|30|-1 25,1,1,1,1,0,1,0,1,1,3,0,1,1,1,38,
scooby_state_4712af|26|0 27,0,1,0,0,0,1,0,0,0,0,3,1,1,4,38,
scooby_state_416e72|61|1 7,13,1,5,1,2,1,2,1,1,0,2,0,0,2,38,
scooby_state_4712af|1|0 31,0,0,1,1,0,1,2,0,0,0,1,0,0,1,38,
scooby_state_41cc81|56|0 37,0,0,0,0,0,0,0,1,0,0,0,0,0,0,38,
scooby_state_62200b|40|0 11,0,4,0,4,3,5,4,0,0,1,4,0,0,2,38,
scooby_state_5124e1|25|1 0,38,0,0,0,0,0,0,0,0,0,0,0,0,0,38,
scooby_state_47135d|19|0 30,2,0,1,1,0,0,0,0,0,1,1,1,1,0,38,
scooby_state_62200b|16|0 3,0,9,0,4,2,7,4,0,2,3,2,0,0,2,38,
scooby_state_621e17|59|0 24,0,1,2,1,1,2,0,0,1,0,4,0,2,0,38,
scooby_state_47135d|1|-1 31,1,0,0,0,0,2,0,1,0,0,0,0,1,2,38,
scooby_state_411b0d|57|0 6,8,3,0,2,3,0,4,1,2,0,1,3,0,5,38,
scooby_state_471394|12|0 32,1,1,0,1,0,0,0,0,0,1,0,1,1,0,38,
scooby_state_47135d|28|-1 28,1,1,0,2,1,0,1,1,0,1,0,1,0,1,38,
scooby_state_41cc78|60|0 34,1,0,0,1,0,0,0,0,0,0,1,1,0,0,38,
scooby_state_471359|22|-1 26,1,0,3,0,1,0,1,0,2,0,0,0,1,3,38,
scooby_state_544edb|22|1 24,0,0,1,2,2,1,0,1,2,1,3,0,1,0,38,
scooby_state_41cc81|49|0 38,0,0,0,0,0,0,0,0,0,0,0,0,0,0,38,
scooby_state_471359|24|-1 36,0,0,0,0,0,1,0,0,1,0,0,0,0,0,38,
scooby_state_624599|23|0 38,0,0,0,0,0,0,0,0,0,0,0,0,0,0,38,
scooby_state_54fe9b|31|2 38,0,0,0,0,0,0,0,0,0,0,0,0,0,0,38,
scooby_state_62200b|23|0 4,0,7,0,4,2,4,4,0,3,1,6,0,0,3,38,
scooby_state_41cc78|7|0 27,0,3,0,1,0,1,1,0,0,1,1,0,0,3,38,
scooby_state_54fe9b|12|2 38,0,0,0,0,0,0,0,0,0,0,0,0,0,0,38,
scooby_state_416ef9|26|0 38,0,0,0,0,0,0,0,0,0,0,0,0,0,0,38,
scooby_state_621e17|27|0 15,1,0,2,2,2,0,0,1,0,2,5,1,3,4,38,
scooby_state_4ec000|29|1 0,1,0,0,0,1,0,0,0,1,0,2,33,0,0,38,
scooby_state_550091|17|0 8,0,9,1,0,5,1,1,5,3,1,0,1,2,1,38,
scooby_state_471394|63|0 34,0,0,0,1,0,1,1,0,0,0,0,1,0,0,38,
scooby_state_54fe9b|21|3 38,0,0,0,0,0,0,0,0,0,0,0,0,0,0,38,
scooby_state_416ef9|9|0 37,0,0,0,0,0,0,0,0,0,0,0,0,0,0,37,
scooby_state_47133d|37|7 31,1,0,0,0,1,0,0,1,2,1,0,0,0,0,37,
scooby_state_471359|6|-1 30,0,0,2,0,1,1,0,0,0,2,0,0,1,0,37,
scooby_state_41cc81|62|0 37,0,0,0,0,0,0,0,0,0,0,0,0,0,0,37,
scooby_state_5124e1|5|1 0,37,0,0,0,0,0,0,0,0,0,0,0,0,0,37,
scooby_state_62200b|38|0 10,0,4,0,4,0,7,2,0,2,3,4,0,0,1,37,
scooby_state_471359|47|-1 33,1,0,0,0,0,0,0,0,0,1,0,1,0,1,37,
scooby_state_47d3b5|8|0 24,0,0,1,1,0,1,2,1,0,2,1,1,1,2,37,
scooby_state_544edb|45|1 21,1,0,2,2,1,0,1,2,0,1,3,0,1,2,37,
scooby_state_47133d|60|19 3,0,0,2,1,2,1,3,3,1,0,3,7,2,9,37,
scooby_state_471394|50|0 33,0,0,0,0,0,0,1,0,1,0,1,0,0,1,37,
scooby_state_47135d|6|0 32,1,0,2,0,0,0,0,0,0,0,1,1,0,0,37,
scooby_state_471359|35|-1 30,0,2,1,0,0,1,0,1,1,1,0,0,0,0,37,
scooby_state_54fe9b|47|2 37,0,0,0,0,0,0,0,0,0,0,0,0,0,0,37,
scooby_state_5432c8|53|0 2,28,0,0,1,0,0,0,0,0,3,0,2,0,1,37,
scooby_state_47e5d4|10|0 27,0,2,1,0,2,0,0,1,0,1,1,1,1,0,37,
scooby_state_416e72|58|1 8,11,2,5,1,0,0,1,1,1,2,0,1,1,3,37,
scooby_state_416ef9|22|0 37,0,0,0,0,0,0,0,0,0,0,0,0,0,0,37,
scooby_state_41cc81|57|0 37,0,0,0,0,0,0,0,0,0,0,0,0,0,0,37,
scooby_state_4e9fc1|38|2 37,0,0,0,0,0,0,0,0,0,0,0,0,0,0,37,
scooby_state_544edb|61|1 16,0,3,5,1,1,2,2,1,0,0,2,2,1,1,37,
scooby_state_416ef9|34|0 37,0,0,0,0,0,0,0,0,0,0,0,0,0,0,37,
scooby_state_62200b|14|0 2,0,9,0,6,0,3,3,0,2,3,4,0,0,5,37,
scooby_state_47135d|33|-1 20,0,1,0,2,1,3,0,0,0,1,0,3,1,5,37,
scooby_state_54fefc|56|18 36,0,0,0,0,0,0,0,0,0,0,0,1,0,0,37,
scooby_state_54fe9b|62|2 37,0,0,0,0,0,0,0,0,0,0,0,0,0,0,37,
scooby_state_5124e1|29|1 0,36,0,0,1,0,0,0,0,0,0,0,0,0,0,37,
scooby_state_416e72|47|1 5,13,1,6,1,0,1,1,1,0,2,2,2,0,2,37,
scooby_state_54fe9b|63|2 37,0,0,0,0,0,0,0,0,0,0,0,0,0,0,37,
scooby_state_544edb|0|0 26,0,1,0,0,1,0,3,2,0,0,0,3,0,1,37,
scooby_state_54fe9b|42|2 37,0,0,0,0,0,0,0,0,0,0,0,0,0,0,37,
scooby_state_416ef9|41|0 37,0,0,0,0,0,0,0,0,0,0,0,0,0,0,37,
scooby_state_62200b|60|0 5,0,11,0,2,3,2,3,0,6,0,2,0,0,3,37,
scooby_state_41cc81|11|0 37,0,0,0,0,0,0,0,0,0,0,0,0,0,0,37,
scooby_state_416e72|21|1 13,8,1,4,0,0,0,1,2,0,0,2,2,1,3,37,
scooby_state_47135d|62|0 31,1,0,1,0,0,0,2,1,0,0,0,0,0,1,37,
scooby_state_416e72|53|1 3,12,5,5,0,0,1,0,0,1,1,5,3,0,1,37,
scooby_state_411c4a|32|0 1,0,1,0,1,0,0,1,2,1,0,2,26,1,1,37,
scooby_state_471359|46|-1 27,0,1,0,1,1,1,1,0,1,2,1,0,0,1,37,
scooby_state_62200b|33|0 7,0,6,0,3,1,6,2,0,1,3,4,0,0,4,37,
scooby_state_471394|32|0 27,0,0,1,0,1,0,1,1,1,0,3,1,1,0,37,
scooby_state_62200b|10|0 7,0,5,0,1,2,1,2,0,5,6,5,0,0,3,37,
scooby_state_416ef9|57|0 37,0,0,0,0,0,0,0,0,0,0,0,0,0,0,37,
scooby_state_416ef9|59|0 37,0,0,0,0,0,0,0,0,0,0,0,0,0,0,37,
scooby_state_471394|38|0 31,0,0,1,2,0,0,1,0,0,0,1,1,0,0,37,
scooby_state_41cc78|32|0 33,0,0,0,0,0,0,0,0,0,0,2,1,0,1,37,
scooby_state_471394|33|0 29,1,2,2,0,1,0,0,0,0,1,1,0,0,0,37,
scooby_state_47133d|31|4 3,1,2,4,4,2,3,2,6,0,3,0,4,1,2,37,
scooby_state_411c4a|63|0 2,0,0,0,1,0,1,0,0,0,3,2,26,0,2,37,
scooby_state_4712af|25|0 34,1,0,0,0,0,1,0,0,0,0,0,0,1,0,37,
scooby_state_471394|14|0 33,0,0,1,0,0,0,1,1,0,0,1,0,0,0,37,
scooby_state_471394|15|0 29,1,0,1,0,1,0,1,1,0,1,0,0,1,1,37,
scooby_state_5432c8|11|0 4,21,1,1,1,1,1,1,0,0,1,1,1,1,2,37,
scooby_state_4712af|60|0 22,1,0,1,1,0,0,0,1,0,1,3,2,2,3,37,
scooby_state_411ac2|43|0 37,0,0,0,0,0,0,0,0,0,0,0,0,0,0,37,
scooby_state_41cc81|29|0 36,0,0,0,0,0,0,0,0,0,0,0,0,0,0,36,
scooby_state_416e72|35|1 11,12,1,6,0,1,0,3,1,0,0,0,0,0,1,36,
scooby_state_4ec000|28|1 0,0,1,0,0,0,0,0,0,0,0,1,34,0,0,36,
scooby_state_41cc81|47|0 36,0,0,0,0,0,0,0,0,0,0,0,0,0,0,36,
scooby_state_5432c8|10|0 9,18,1,0,0,0,0,1,2,0,0,0,0,0,5,36,
scooby_state_544edb|28|1 20,2,1,3,1,1,1,1,0,2,1,1,1,1,0,36,
scooby_state_4712af|44|0 30,1,0,2,0,1,0,1,1,0,0,0,0,0,0,36,
scooby_state_47135d|29|0 28,1,0,0,2,1,0,0,0,0,0,2,1,0,1,36,
scooby_state_416ef9|55|0 36,0,0,0,0,0,0,0,0,0,0,0,0,0,0,36,
scooby_state_416e72|32|1 10,14,0,7,0,0,2,0,0,0,2,1,0,0,0,36,
scooby_state_47135d|13|0 28,1,2,0,2,1,0,0,0,0,0,0,0,1,1,36,
scooby_state_416ef9|37|0 36,0,0,0,0,0,0,0,0,0,0,0,0,0,0,36,
scooby_state_544edb|20|1 24,0,1,3,2,1,0,0,1,0,0,2,0,2,0,36,
scooby_state_471366|0|0 0,19,0,2,1,3,1,2,0,2,0,1,2,0,3,36,
scooby_state_47e5d4|62|0 25,1,0,1,0,0,1,1,2,1,2,0,1,0,1,36,
scooby_state_550ff8|21|-17 35,0,0,0,0,0,0,0,0,1,0,0,0,0,0,36,
scooby_state_471394|23|0 29,0,0,1,0,1,0,0,1,0,0,1,1,1,1,36,
scooby_state_471366|58|2 30,0,0,1,2,0,0,2,0,1,0,0,0,0,0,36,
scooby_state_62200b|22|0 5,0,5,0,4,2,3,5,0,1,4,2,0,0,5,36,
scooby_state_47133d|58|50 0,2,1,2,2,2,2,2,3,3,1,0,3,9,4,36,
scooby_state_54fe9b|43|3 36,0,0,0,0,0,0,0,0,0,0,0,0,0,0,36,
scooby_state_54fe9b|6|2 36,0,0,0,0,0,0,0,0,0,0,0,0,0,0,36,
scooby_state_416ef9|16|0 36,0,0,0,0,0,0,0,0,0,0,0,0,0,0,36,
scooby_state_544edb|49|1 20,1,0,4,1,0,0,1,0,1,0,8,0,0,0,36,
scooby_state_416e72|40|1 10,12,0,4,1,1,1,0,1,0,2,3,1,0,0,36,
scooby_state_624599|37|0 36,0,0,0,0,0,0,0,0,0,0,0,0,0,0,36,
scooby_state_416ef9|35|0 36,0,0,0,0,0,0,0,0,0,0,0,0,0,0,36,
scooby_state_47e5d4|11|0 25,0,1,1,0,0,2,2,1,1,1,1,1,0,0,36,
scooby_state_47135d|16|-1 24,1,1,1,1,1,0,0,0,0,2,1,4,0,0,36,
scooby_state_416e72|39|1 11,14,2,4,0,0,0,0,0,1,0,0,1,1,2,36,
scooby_state_62200b|48|0 5,0,4,0,3,4,4,2,0,4,6,2,0,0,2,36,
scooby_state_621e17|25|0 19,1,0,0,1,1,1,0,0,2,1,5,0,3,2,36,
scooby_state_5432c8|47|0 7,21,0,1,0,0,0,1,1,1,0,0,0,2,2,36,
scooby_state_54fefc|55|18 34,0,0,1,0,0,0,0,0,0,0,0,0,0,1,36,
scooby_state_4ec000|19|1 0,0,0,0,0,0,0,0,1,0,0,4,31,0,0,36,
scooby_state_47135d|47|0 27,0,1,0,0,0,0,0,0,1,1,1,3,2,0,36,
scooby_state_47135d|3|-1 28,0,0,0,2,1,0,0,1,0,0,1,1,0,2,36,
scooby_state_416ef9|46|0 36,0,0,0,0,0,0,0,0,0,0,0,0,0,0,36,
scooby_state_54fe9b|44|2 36,0,0,0,0,0,0,0,0,0,0,0,0,0,0,36,
scooby_state_471394|5|0 32,0,0,0,1,0,0,0,1,0,0,0,1,1,0,36,
scooby_state_47135d|31|0 34,0,0,0,0,2,0,0,0,0,0,0,0,0,0,36,
scooby_state_47135d|32|0 29,0,0,0,0,1,1,0,1,0,0,0,0,0,4,36,
scooby_state_47135d|43|-1 27,0,1,1,0,1,0,1,0,1,0,1,1,0,2,36,
scooby_state_416ef9|43|0 36,0,0,0,0,0,0,0,0,0,0,0,0,0,0,36,
scooby_state_471394|49|0 33,0,0,0,1,0,0,1,0,0,1,0,0,0,0,36,
scooby_state_471359|17|-1 33,0,0,1,0,0,0,0,0,0,1,0,0,0,1,36,
scooby_state_471394|30|0 29,1,0,2,0,1,0,0,1,0,0,0,1,0,1,36,
scooby_state_416e72|12|1 11,8,1,9,0,0,0,1,0,0,0,2,1,1,2,36,
scooby_state_62200b|51|0 6,0,4,0,6,1,4,2,0,4,4,5,0,0,0,36,
scooby_state_47135d|45|-1 24,2,1,0,0,0,0,1,1,1,0,2,2,0,2,36,
scooby_state_4ec000|2|1 0,0,0,0,0,0,0,0,0,0,0,1,35,0,0,36,
scooby_state_471394|42|0 33,0,0,0,1,1,1,0,0,0,0,0,0,0,0,36,
scooby_state_544edb|46|1 21,1,0,3,0,0,2,0,2,0,2,2,0,0,2,35,
scooby_state_411c5f|61|-2 11,14,0,0,0,2,1,0,0,0,1,0,2,2,2,35,
scooby_state_471394|17|0 25,1,1,1,2,1,0,0,0,1,0,1,1,0,1,35,
scooby_state_621e17|8|0 15,0,0,1,1,1,0,1,0,0,1,6,2,2,5,35,
scooby_state_54fefc|27|18 33,0,0,0,0,0,0,0,1,0,0,0,0,1,0,35,
scooby_state_4e9fc1|3|2 35,0,0,0,0,0,0,0,0,0,0,0,0,0,0,35,
scooby_state_621e17|55|0 18,1,1,1,1,0,0,0,0,0,0,6,2,3,2,35,
scooby_state_47135d|61|0 29,0,1,0,0,0,0,2,0,1,0,0,1,1,0,35,
scooby_state_5432c8|54|0 4,18,0,0,0,1,0,1,3,0,0,1,1,1,5,35,
scooby_state_416ef9|53|0 35,0,0,0,0,0,0,0,0,0,0,0,0,0,0,35,
scooby_state_411b0d|63|0 4,5,2,2,1,1,2,1,3,1,1,1,2,4,5,35,
scooby_state_471359|54|-1 28,0,1,0,0,0,1,0,0,2,1,1,0,0,1,35,
scooby_state_47d608|2|0 33,0,1,0,0,1,0,0,0,0,0,0,0,0,0,35,
scooby_state_47135d|4|-1 26,3,1,1,1,0,1,0,0,0,0,2,0,0,0,35,
scooby_state_416ef9|13|0 35,0,0,0,0,0,0,0,0,0,0,0,0,0,0,35,
scooby_state_47e5d4|28|0 24,0,2,1,1,0,1,1,0,1,0,0,2,0,2,35,
scooby_state_4712af|57|0 22,1,1,2,2,1,1,0,0,0,0,3,0,1,1,35,
scooby_state_544f08|60|0 0,0,6,0,2,2,1,2,2,2,1,1,12,1,3,35,
scooby_state_41cc81|20|0 35,0,0,0,0,0,0,0,0,0,0,0,0,0,0,35,
scooby_state_416ef9|1|0 35,0,0,0,0,0,0,0,0,0,0,0,0,0,0,35,
scooby_state_621e17|16|0 19,2,1,0,1,1,1,0,0,0,1,3,2,3,1,35,
scooby_state_54fe9b|33|2 35,0,0,0,0,0,0,0,0,0,0,0,0,0,0,35,
scooby_state_47e5d4|35|0 22,1,0,0,1,1,1,0,0,0,1,3,0,2,3,35,
scooby_state_54fefc|28|18 34,0,0,1,0,0,0,0,0,0,0,0,0,0,0,35,
scooby_state_434103|4|0 35,0,0,0,0,0,0,0,0,0,0,0,0,0,0,35,
scooby_state_416e72|5|1 5,18,0,6,0,0,0,0,1,2,0,2,0,1,0,35,
scooby_state_5432c8|57|0 5,22,0,0,2,0,1,1,1,1,0,1,0,0,1,35,
scooby_state_47135d|55|-1 19,1,3,0,1,1,1,1,2,0,1,2,3,0,0,35,
scooby_state_4712af|34|0 25,1,0,1,0,2,1,0,0,2,0,0,1,0,2,35,
scooby_state_471394|22|0 29,1,0,0,0,0,0,0,1,1,1,0,0,1,1,35,
scooby_state_62200b|54|0 2,0,9,0,2,0,5,2,0,2,5,3,0,0,5,35,
scooby_state_41cc81|63|0 35,0,0,0,0,0,0,0,0,0,0,0,0,0,0,35,
scooby_state_41cc81|13|0 35,0,0,0,0,0,0,0,0,0,0,0,0,0,0,35,
scooby_state_41cc81|53|0 35,0,0,0,0,0,0,0,0,0,0,0,0,0,0,35,
scooby_state_54fe9b|30|2 34,0,0,0,0,0,0,0,0,0,0,0,0,1,0,35,
scooby_state_416ef9|27|0 35,0,0,0,0,0,0,0,0,0,0,0,0,0,0,35,
scooby_state_62200b|30|0 7,0,5,1,2,0,2,1,0,4,5,6,0,0,2,35,
scooby_state_4e9fc1|53|2 35,0,0,0,0,0,0,0,0,0,0,0,0,0,0,35,
scooby_state_4e9fc1|49|2 35,0,0,0,0,0,0,0,0,0,0,0,0,0,0,35,
scooby_state_4ec000|5|1 0,1,0,1,1,0,0,0,0,0,0,5,27,0,0,35,
scooby_state_624599|44|0 35,0,0,0,0,0,0,0,0,0,0,0,0,0,0,35,
scooby_state_54fefc|52|18 34,0,0,0,0,0,0,0,1,0,0,0,0,0,0,35,
scooby_state_47e5d4|6|0 25,0,1,2,1,0,0,1,0,0,1,1,0,2,1,35,
scooby_state_5432c8|55|0 6,16,2,1,0,0,1,2,2,1,1,1,0,1,1,35,
scooby_state_471359|15|-1 26,1,0,1,0,1,0,0,0,1,1,0,1,2,1,35,
scooby_state_5465b0|22|6 0,17,18,0,0,0,0,0,0,0,0,0,0,0,0,35,
scooby_state_624599|58|0 35,0,0,0,0,0,0,0,0,0,0,0,0,0,0,35,
scooby_state_4712af|16|0 30,0,0,0,1,0,1,0,1,0,1,0,0,1,0,35,
scooby_state_416ef9|15|0 35,0,0,0,0,0,0,0,0,0,0,0,0,0,0,35,
scooby_state_546401|16|0 9,0,0,3,2,3,1,2,3,3,2,2,1,1,3,35,
scooby_state_471366|4|2 25,1,1,0,1,0,0,1,0,1,0,2,1,1,1,35,
scooby_state_47e5d4|15|0 26,0,0,0,0,2,0,1,1,1,0,2,1,1,0,35,
scooby_state_41072e|2|-52 25,7,0,0,0,0,0,0,1,0,0,1,1,0,0,35,
scooby_state_47135d|46|-1 22,3,0,0,2,0,0,3,0,1,0,1,1,0,1,34,
scooby_state_544edb|2|1 19,0,3,2,1,0,0,1,1,1,1,2,1,0,2,34,
scooby_state_54fe9b|13|2 34,0,0,0,0,0,0,0,0,0,0,0,0,0,0,34,
scooby_state_545000|0|0 33,0,0,0,1,0,0,0,0,0,0,0,0,0,0,34,
scooby_state_47135d|53|-1 24,1,1,0,1,0,1,0,2,1,0,0,2,1,0,34,
scooby_state_62200b|53|0 6,0,3,0,4,0,7,4,0,7,2,0,0,0,1,34,
scooby_state_62200b|39|0 3,0,4,0,4,1,4,6,0,2,3,3,0,0,4,34,
scooby_state_54fe9b|21|2 34,0,0,0,0,0,0,0,0,0,0,0,0,0,0,34,
scooby_state_47135d|50|0 25,2,0,0,0,1,2,0,2,1,0,1,0,0,0,34,
scooby_state_550ff8|20|-17 33,0,0,0,1,0,0,0,0,0,0,0,0,0,0,34,
scooby_state_416ef9|47|0 34,0,0,0,0,0,0,0,0,0,0,0,0,0,0,34,
scooby_state_544edb|57|1 15,1,2,2,1,1,0,0,3,0,2,5,1,0,1,34,
scooby_state_62200b|3|0 8,0,5,0,3,3,7,0,0,4,1,3,0,0,0,34,
scooby_state_5124e1|61|1 0,34,0,0,0,0,0,0,0,0,0,0,0,0,0,34,
scooby_state_47135d|11|0 30,1,0,1,0,0,0,1,0,0,0,0,1,0,0,34,
scooby_state_624599|43|0 32,0,1,0,0,0,0,0,0,0,0,1,0,0,0,34,
scooby_state_54fe9b|5|2 34,0,0,0,0,0,0,0,0,0,0,0,0,0,0,34,
scooby_state_62200b|41|0 7,0,2,0,6,0,2,5,0,3,2,6,0,0,1,34,
[...]
scooby_state_5555a4|46|14 1,0,0,0,0,0,0,0,0,0,0,0,0,0,0,1,
scooby_state_47133d|20|-27 0,1,0,0,0,0,0,0,0,0,0,0,0,0,0,1,
scooby_state_5433f9|15|4 1,0,0,0,0,0,0,0,0,0,0,0,0,0,0,1,
scooby_state_41cc78|9|2 0,0,0,0,0,0,0,0,0,0,0,1,0,0,0,1,
scooby_state_41d206|8|-10 1,0,0,0,0,0,0,0,0,0,0,0,0,0,0,1,
scooby_state_444020|39|27 0,1,0,0,0,0,0,0,0,0,0,0,0,0,0,1,
scooby_state_552173|16|0 0,1,0,0,0,0,0,0,0,0,0,0,0,0,0,1,
scooby_state_444020|23|-6 0,1,0,0,0,0,0,0,0,0,0,0,0,0,0,1,
scooby_state_416eb3|44|32 0,0,0,0,0,0,0,0,0,0,0,1,0,0,0,1,
scooby_state_444216|53|-4 0,0,0,0,0,0,0,0,0,0,0,0,0,0,1,1,
scooby_state_47133d|23|-38 0,0,0,0,0,0,0,0,0,0,0,0,0,1,0,1,
scooby_state_439bd0|47|0 1,0,0,0,0,0,0,0,0,0,0,0,0,0,0,1,
scooby_state_55bf60|61|8 0,1,0,0,0,0,0,0,0,0,0,0,0,0,0,1,
scooby_state_6408a0|34|2 0,0,0,0,0,0,0,0,0,0,0,0,1,0,0,1,
scooby_state_5555a4|29|-25 0,0,0,0,0,0,0,0,0,0,0,1,0,0,0,1,
scooby_state_5555a4|18|-26 1,0,0,0,0,0,0,0,0,0,0,0,0,0,0,1,
scooby_state_47d453|38|2 1,0,0,0,0,0,0,0,0,0,0,0,0,0,0,1,
scooby_state_445148|47|-10 0,0,0,0,0,0,0,0,1,0,0,0,0,0,0,1,
scooby_state_55039d|36|-10 0,0,0,0,0,0,0,0,0,0,0,0,1,0,0,1,
scooby_state_44416b|0|-2 0,0,1,0,0,0,0,0,0,0,0,0,0,0,0,1,
scooby_state_444216|28|-34 1,0,0,0,0,0,0,0,0,0,0,0,0,0,0,1,
scooby_state_41cc78|55|7 1,0,0,0,0,0,0,0,0,0,0,0,0,0,0,1,
scooby_state_47e640|1|0 1,0,0,0,0,0,0,0,0,0,0,0,0,0,0,1,
scooby_state_416eb6|24|15 1,0,0,0,0,0,0,0,0,0,0,0,0,0,0,1,
scooby_state_4168ba|38|12 0,0,0,0,0,0,0,0,0,0,0,1,0,0,0,1,
scooby_state_41d1f4|44|31 0,0,1,0,0,0,0,0,0,0,0,0,0,0,0,1,
scooby_state_416ef9|20|-2 1,0,0,0,0,0,0,0,0,0,0,0,0,0,0,1,
scooby_state_416ef9|52|43 1,0,0,0,0,0,0,0,0,0,0,0,0,0,0,1,
scooby_state_4168b0|7|-1 0,0,0,1,0,0,0,0,0,0,0,0,0,0,0,1,
scooby_state_416ef9|59|11 1,0,0,0,0,0,0,0,0,0,0,0,0,0,0,1,
scooby_state_620aeb|52|1 0,0,0,0,0,0,0,0,0,0,0,0,0,0,1,1,
scooby_state_550a80|42|0 1,0,0,0,0,0,0,0,0,0,0,0,0,0,0,1,
scooby_state_63f87f|25|0 1,0,0,0,0,0,0,0,0,0,0,0,0,0,0,1,
scooby_state_410748|29|1 1,0,0,0,0,0,0,0,0,0,0,0,0,0,0,1,
scooby_state_5432c8|24|12 0,1,0,0,0,0,0,0,0,0,0,0,0,0,0,1,
scooby_state_47d453|61|24 1,0,0,0,0,0,0,0,0,0,0,0,0,0,0,1,
scooby_state_620aeb|22|4 1,0,0,0,0,0,0,0,0,0,0,0,0,0,0,1,
scooby_state_5555a4|63|3 0,0,0,0,0,0,0,0,0,0,0,1,0,0,0,1,
scooby_state_552274|10|0 0,0,0,0,0,0,0,0,0,0,0,0,0,1,0,1,
scooby_state_44427d|24|-28 1,0,0,0,0,0,0,0,0,0,0,0,0,0,0,1,
scooby_state_47133d|39|3 1,0,0,0,0,0,0,0,0,0,0,0,0,0,0,1,
scooby_state_63f883|34|1 1,0,0,0,0,0,0,0,0,0,0,0,0,0,0,1,
scooby_state_55039d|45|24 0,0,0,0,0,0,0,0,0,0,0,0,1,0,0,1,
scooby_state_47133d|34|30 0,0,0,1,0,0,0,0,0,0,0,0,0,0,0,1,
scooby_state_5124e1|2|-2 0,1,0,0,0,0,0,0,0,0,0,0,0,0,0,1,
scooby_state_4712ab|49|16 1,0,0,0,0,0,0,0,0,0,0,0,0,0,0,1,
scooby_state_55032d|12|5 1,0,0,0,0,0,0,0,0,0,0,0,0,0,0,1,
scooby_state_47d453|21|4 0,1,0,0,0,0,0,0,0,0,0,0,0,0,0,1,
scooby_state_621440|17|1 1,0,0,0,0,0,0,0,0,0,0,0,0,0,0,1,
scooby_state_550931|34|12 0,0,0,0,0,0,0,0,0,0,0,1,0,0,0,1,
scooby_state_552252|9|2 1,0,0,0,0,0,0,0,0,0,0,0,0,0,0,1,
scooby_state_445148|41|14 1,0,0,0,0,0,0,0,0,0,0,0,0,0,0,1,
scooby_state_4340f0|52|43 0,0,0,0,0,0,0,0,0,0,0,1,0,0,0,1,
scooby_state_620d80|54|14 0,1,0,0,0,0,0,0,0,0,0,0,0,0,0,1,
scooby_state_41cc81|58|32 1,0,0,0,0,0,0,0,0,0,0,0,0,0,0,1,
scooby_state_444216|21|-17 0,0,0,0,0,1,0,0,0,0,0,0,0,0,0,1,
scooby_state_41cc81|42|34 1,0,0,0,0,0,0,0,0,0,0,0,0,0,0,1,
scooby_state_41cc81|49|35 1,0,0,0,0,0,0,0,0,0,0,0,0,0,0,1,
scooby_state_47133d|62|60 0,0,0,0,0,0,1,0,0,0,0,0,0,0,0,1,
scooby_state_444216|57|31 0,0,0,0,0,0,0,0,0,0,0,0,0,1,0,1,
scooby_state_47d453|25|-20 1,0,0,0,0,0,0,0,0,0,0,0,0,0,0,1,
scooby_state_471366|39|1 0,0,0,0,0,0,1,0,0,0,0,0,0,0,0,1,
scooby_state_5555a4|28|-24 0,0,0,0,0,0,0,0,0,0,0,1,0,0,0,1,
scooby_state_550b49|39|-12 1,0,0,0,0,0,0,0,0,0,0,0,0,0,0,1,
scooby_state_555968|37|5 1,0,0,0,0,0,0,0,0,0,0,0,0,0,0,1,
scooby_state_47133d|49|-14 0,0,0,0,0,0,1,0,0,0,0,0,0,0,0,1,
scooby_state_444020|8|-7 0,1,0,0,0,0,0,0,0,0,0,0,0,0,0,1,
scooby_state_416e84|7|3 0,1,0,0,0,0,0,0,0,0,0,0,0,0,0,1,
scooby_state_444020|25|14 0,1,0,0,0,0,0,0,0,0,0,0,0,0,0,1,
scooby_state_5125d4|1|1 0,0,0,0,0,0,0,0,0,0,0,0,0,0,1,1,
scooby_state_550d80|54|39 1,0,0,0,0,0,0,0,0,0,0,0,0,0,0,1,
scooby_state_5432c8|0|-6 1,0,0,0,0,0,0,0,0,0,0,0,0,0,0,1,
scooby_state_41191a|7|-28 0,0,1,0,0,0,0,0,0,0,0,0,0,0,0,1,
scooby_state_4168b4|9|-3 0,0,0,0,1,0,0,0,0,0,0,0,0,0,0,1,
scooby_state_41cc78|38|4 0,0,0,0,0,0,1,0,0,0,0,0,0,0,0,1,
scooby_state_550397|31|25 0,0,0,0,0,0,0,0,0,1,0,0,0,0,0,1,
scooby_state_41191a|16|-20 0,0,0,0,0,0,0,0,0,0,0,0,0,0,1,1,
scooby_state_416eb6|14|-35 1,0,0,0,0,0,0,0,0,0,0,0,0,0,0,1,
scooby_state_53f4f2|19|1 1,0,0,0,0,0,0,0,0,0,0,0,0,0,0,1,
scooby_state_620942|37|1 0,1,0,0,0,0,0,0,0,0,0,0,0,0,0,1,
scooby_state_41cc81|50|1 1,0,0,0,0,0,0,0,0,0,0,0,0,0,0,1,
scooby_state_47133d|38|-21 0,0,0,0,0,0,0,0,1,0,0,0,0,0,0,1,
scooby_state_54fe9b|40|37 1,0,0,0,0,0,0,0,0,0,0,0,0,0,0,1,
scooby_state_47e5d4|3|1 0,0,0,0,0,0,0,0,0,0,0,0,0,1,0,1,
scooby_state_47133d|45|21 0,0,0,0,0,0,0,0,0,0,0,0,0,0,1,1,
scooby_state_41cc81|48|33 1,0,0,0,0,0,0,0,0,0,0,0,0,0,0,1,
scooby_state_47d453|39|20 1,0,0,0,0,0,0,0,0,0,0,0,0,0,0,1,
scooby_state_55b73b|26|1 1,0,0,0,0,0,0,0,0,0,0,0,0,0,0,1,
scooby_state_64cac3|43|1 1,0,0,0,0,0,0,0,0,0,0,0,0,0,0,1,
scooby_state_439cc5|51|1 1,0,0,0,0,0,0,0,0,0,0,0,0,0,0,1,
scooby_state_416eb3|41|34 1,0,0,0,0,0,0,0,0,0,0,0,0,0,0,1,
scooby_state_47ebc2|47|1 1,0,0,0,0,0,0,0,0,0,0,0,0,0,0,1,
scooby_state_47ea73|48|-1 0,0,0,0,0,0,0,0,0,0,0,0,0,1,0,1,
scooby_state_416eb3|5|-38 0,0,0,0,0,0,0,0,0,0,0,1,0,0,0,1,
scooby_state_444020|45|28 0,1,0,0,0,0,0,0,0,0,0,0,0,0,0,1,
scooby_state_63f889|44|0 1,0,0,0,0,0,0,0,0,0,0,0,0,0,0,1,
scooby_state_47133d|15|-18 1,0,0,0,0,0,0,0,0,0,0,0,0,0,0,1,
scooby_state_4340f0|57|12 0,0,0,1,0,0,0,0,0,0,0,0,0,0,0,1,
scooby_state_416eb3|23|-34 0,0,0,0,0,0,0,0,0,0,0,1,0,0,0,1,
scooby_state_410598|22|1 1,0,0,0,0,0,0,0,0,0,0,0,0,0,0,1,
scooby_state_550dc2|55|1 1,0,0,0,0,0,0,0,0,0,0,0,0,0,0,1,
scooby_state_416eb6|53|15 1,0,0,0,0,0,0,0,0,0,0,0,0,0,0,1,
scooby_state_5124e1|56|50 0,1,0,0,0,0,0,0,0,0,0,0,0,0,0,1,
scooby_state_550397|33|-8 0,1,0,0,0,0,0,0,0,0,0,0,0,0,0,1,
scooby_state_559488|18|1 1,0,0,0,0,0,0,0,0,0,0,0,0,0,0,1,
scooby_state_416e84|5|0 0,1,0,0,0,0,0,0,0,0,0,0,0,0,0,1,
scooby_state_444178|46|24 0,1,0,0,0,0,0,0,0,0,0,0,0,0,0,1,
scooby_state_47133d|14|-33 1,0,0,0,0,0,0,0,0,0,0,0,0,0,0,1,
scooby_state_41cc78|47|6 1,0,0,0,0,0,0,0,0,0,0,0,0,0,0,1,
scooby_state_411afa|51|2 1,0,0,0,0,0,0,0,0,0,0,0,0,0,0,1,
scooby_state_549390|30|1 1,0,0,0,0,0,0,0,0,0,0,0,0,0,0,1,
scooby_state_555bbb|42|-6 0,0,0,0,0,0,0,0,0,0,0,1,0,0,0,1,
scooby_state_544edb|33|0 0,0,0,0,0,1,0,0,0,0,0,0,0,0,0,1,
scooby_state_41054e|51|2 0,0,0,0,0,0,0,0,0,0,0,1,0,0,0,1,
scooby_state_416eb6|18|11 1,0,0,0,0,0,0,0,0,0,0,0,0,0,0,1,
scooby_state_416eb6|45|30 1,0,0,0,0,0,0,0,0,0,0,0,0,0,0,1,
scooby_state_41cc81|58|34 1,0,0,0,0,0,0,0,0,0,0,0,0,0,0,1,
scooby_state_4168ba|23|-34 0,0,0,0,0,0,0,0,0,0,0,1,0,0,0,1,
scooby_state_63fad2|43|9 1,0,0,0,0,0,0,0,0,0,0,0,0,0,0,1,
scooby_state_54ca83|42|1 0,1,0,0,0,0,0,0,0,0,0,0,0,0,0,1,
scooby_state_552274|42|2 0,0,0,1,0,0,0,0,0,0,0,0,0,0,0,1,
scooby_state_471386|14|1 1,0,0,0,0,0,0,0,0,0,0,0,0,0,0,1,
scooby_state_444020|59|34 0,1,0,0,0,0,0,0,0,0,0,0,0,0,0,1,
scooby_state_444216|47|27 0,0,0,0,0,0,0,0,0,0,0,0,0,1,0,1,
scooby_state_4713b5|5|0 1,0,0,0,0,0,0,0,0,0,0,0,0,0,0,1,
scooby_state_4ec000|51|-11 0,0,0,0,0,0,0,0,0,0,0,0,1,0,0,1,
scooby_state_621db0|54|0 1,0,0,0,0,0,0,0,0,0,0,0,0,0,0,1,
scooby_state_622407|4|3 1,0,0,0,0,0,0,0,0,0,0,0,0,0,0,1,
scooby_state_47133d|7|-17 0,0,0,0,0,0,0,0,0,0,0,0,0,1,0,1,
scooby_state_416ef9|21|-7 1,0,0,0,0,0,0,0,0,0,0,0,0,0,0,1,
scooby_state_4713bc|35|2 0,0,0,0,0,0,0,0,0,0,0,0,0,1,0,1,
scooby_state_4ea00b|13|3 0,1,0,0,0,0,0,0,0,0,0,0,0,0,0,1,
scooby_state_55039d|33|-9 1,0,0,0,0,0,0,0,0,0,0,0,0,0,0,1,
scooby_state_443ff4|63|2 0,0,1,0,0,0,0,0,0,0,0,0,0,0,0,1,
scooby_state_41cc81|54|25 1,0,0,0,0,0,0,0,0,0,0,0,0,0,0,1,
scooby_state_444178|45|25 0,0,0,0,0,0,0,0,0,0,0,0,0,1,0,1,
scooby_state_416ef9|32|-12 1,0,0,0,0,0,0,0,0,0,0,0,0,0,0,1,
scooby_state_49c0e0|3|0 1,0,0,0,0,0,0,0,0,0,0,0,0,0,0,1,
scooby_state_47133d|18|-19 0,0,0,0,0,0,1,0,0,0,0,0,0,0,0,1,
scooby_state_41d490|18|0 1,0,0,0,0,0,0,0,0,0,0,0,0,0,0,1,
scooby_state_416ef9|55|39 1,0,0,0,0,0,0,0,0,0,0,0,0,0,0,1,
scooby_state_55b173|18|-1 1,0,0,0,0,0,0,0,0,0,0,0,0,0,0,1,
scooby_state_550397|54|-7 1,0,0,0,0,0,0,0,0,0,0,0,0,0,0,1,
scooby_state_47133d|35|11 0,0,0,0,0,0,0,1,0,0,0,0,0,0,0,1,
scooby_state_549390|6|3 0,0,0,0,0,0,0,0,0,0,0,0,1,0,0,1,
scooby_state_444216|49|5 0,0,0,0,0,1,0,0,0,0,0,0,0,0,0,1,
scooby_state_4ea019|43|3 0,1,0,0,0,0,0,0,0,0,0,0,0,0,0,1,
scooby_state_416eb6|37|35 1,0,0,0,0,0,0,0,0,0,0,0,0,0,0,1,
scooby_state_47133d|44|-5 0,0,0,0,1,0,0,0,0,0,0,0,0,0,0,1,
scooby_state_445148|5|1 1,0,0,0,0,0,0,0,0,0,0,0,0,0,0,1,
scooby_state_555bc2|47|-1 1,0,0,0,0,0,0,0,0,0,0,0,0,0,0,1,
scooby_state_47d453|55|4 0,1,0,0,0,0,0,0,0,0,0,0,0,0,0,1,
scooby_state_444178|61|33 1,0,0,0,0,0,0,0,0,0,0,0,0,0,0,1,
scooby_state_471394|3|-1 1,0,0,0,0,0,0,0,0,0,0,0,0,0,0,1,
scooby_state_545370|20|0 1,0,0,0,0,0,0,0,0,0,0,0,0,0,0,1,
scooby_state_416ef9|44|35 1,0,0,0,0,0,0,0,0,0,0,0,0,0,0,1,
scooby_state_4105d4|51|0 1,0,0,0,0,0,0,0,0,0,0,0,0,0,0,1,
scooby_state_47133d|56|10 0,0,0,0,0,0,0,0,0,0,0,0,1,0,0,1,
scooby_state_620b82|46|1 1,0,0,0,0,0,0,0,0,0,0,0,0,0,0,1,
scooby_state_555540|21|1 0,1,0,0,0,0,0,0,0,0,0,0,0,0,0,1,
scooby_state_5557ef|31|1 1,0,0,0,0,0,0,0,0,0,0,0,0,0,0,1,
scooby_state_4168b4|45|-10 0,0,0,0,0,0,0,0,0,0,0,0,0,1,0,1,
scooby_state_416eb6|11|-35 1,0,0,0,0,0,0,0,0,0,0,0,0,0,0,1,
scooby_state_550397|49|-10 1,0,0,0,0,0,0,0,0,0,0,0,0,0,0,1,
scooby_state_556281|10|1 1,0,0,0,0,0,0,0,0,0,0,0,0,0,0,1,
scooby_state_416eb3|47|-16 0,0,0,0,0,0,0,0,0,0,0,1,0,0,0,1,
scooby_state_47d453|61|8 1,0,0,0,0,0,0,0,0,0,0,0,0,0,0,1,
scooby_state_47133d|57|9 0,0,0,0,0,0,0,0,0,0,0,1,0,0,0,1,
scooby_state_549100|15|1 1,0,0,0,0,0,0,0,0,0,0,0,0,0,0,1,
scooby_state_47d453|40|2 1,0,0,0,0,0,0,0,0,0,0,0,0,0,0,1,
scooby_state_544edb|46|0 1,0,0,0,0,0,0,0,0,0,0,0,0,0,0,1,
scooby_state_416eb3|60|24 0,0,0,0,0,0,0,0,0,0,0,1,0,0,0,1,
scooby_state_54ffeb|63|2 1,0,0,0,0,0,0,0,0,0,0,0,0,0,0,1,
scooby_state_4441ba|16|2 0,1,0,0,0,0,0,0,0,0,0,0,0,0,0,1,
scooby_state_552274|59|2 0,0,0,0,0,0,0,0,0,0,0,1,0,0,0,1,
scooby_state_54523b|8|2 1,0,0,0,0,0,0,0,0,0,0,0,0,0,0,1,
scooby_state_62200b|3|-4 0,1,0,0,0,0,0,0,0,0,0,0,0,0,0,1,
scooby_state_444216|17|8 0,0,0,0,0,0,0,0,1,0,0,0,0,0,0,1,
scooby_state_55039d|21|-15 1,0,0,0,0,0,0,0,0,0,0,0,0,0,0,1,
scooby_state_54fefc|30|0 1,0,0,0,0,0,0,0,0,0,0,0,0,0,0,1,
scooby_state_550942|37|0 0,1,0,0,0,0,0,0,0,0,0,0,0,0,0,1,
scooby_state_4712ab|2|-5 0,0,1,0,0,0,0,0,0,0,0,0,0,0,0,1,
scooby_state_444020|63|25 0,1,0,0,0,0,0,0,0,0,0,0,0,0,0,1,
scooby_state_55039d|63|20 0,0,0,0,0,0,0,0,0,0,0,1,0,0,0,1,
scooby_state_412730|3|0 1,0,0,0,0,0,0,0,0,0,0,0,0,0,0,1,
scooby_state_416ef9|21|16 1,0,0,0,0,0,0,0,0,0,0,0,0,0,0,1,
scooby_state_550397|49|-5 0,0,0,0,0,1,0,0,0,0,0,0,0,0,0,1,
scooby_state_5124e1|19|0 0,1,0,0,0,0,0,0,0,0,0,0,0,0,0,1,
scooby_state_550a73|1|-62 0,0,0,0,0,0,0,0,0,0,0,0,0,1,0,1,
scooby_state_41ccb1|24|1 1,0,0,0,0,0,0,0,0,0,0,0,0,0,0,1,
scooby_state_47133d|46|-16 0,0,1,0,0,0,0,0,0,0,0,0,0,0,0,1,
scooby_state_41d1f4|38|35 0,0,1,0,0,0,0,0,0,0,0,0,0,0,0,1,
scooby_state_47133d|6|-2 0,0,0,0,0,0,0,0,0,1,0,0,0,0,0,1,
scooby_state_416eb6|59|6 1,0,0,0,0,0,0,0,0,0,0,0,0,0,0,1,
scooby_state_47136d|16|0 0,0,0,0,1,0,0,0,0,0,0,0,0,0,0,1,
scooby_state_4ec000|25|4 1,0,0,0,0,0,0,0,0,0,0,0,0,0,0,1,
scooby_state_4340f0|28|2 1,0,0,0,0,0,0,0,0,0,0,0,0,0,0,1,
scooby_state_47133d|22|8 0,0,0,1,0,0,0,0,0,0,0,0,0,0,0,1,
scooby_state_4168b4|51|26 1,0,0,0,0,0,0,0,0,0,0,0,0,0,0,1,
scooby_state_41d1f4|14|8 0,0,1,0,0,0,0,0,0,0,0,0,0,0,0,1,
scooby_state_416e84|4|4 0,1,0,0,0,0,0,0,0,0,0,0,0,0,0,1,
scooby_state_416ef9|0|-41 1,0,0,0,0,0,0,0,0,0,0,0,0,0,0,1,
scooby_state_4c2770|29|0 1,0,0,0,0,0,0,0,0,0,0,0,0,0,0,1,
scooby_state_4441ae|33|2 1,0,0,0,0,0,0,0,0,0,0,0,0,0,0,1,
scooby_state_5555a4|50|18 0,0,0,0,0,0,0,0,0,0,0,1,0,0,0,1,
scooby_state_4441c7|15|-8 0,0,0,0,0,0,0,0,0,0,0,0,0,0,1,1,
scooby_state_444020|28|23 0,1,0,0,0,0,0,0,0,0,0,0,0,0,0,1,
scooby_state_41cc81|1|-44 1,0,0,0,0,0,0,0,0,0,0,0,0,0,0,1,
scooby_state_41191a|6|-2 0,0,0,0,0,0,0,0,0,0,0,0,0,1,0,1,
scooby_state_620980|38|1 1,0,0,0,0,0,0,0,0,0,0,0,0,0,0,1,
scooby_state_416e84|0|-9 0,1,0,0,0,0,0,0,0,0,0,0,0,0,0,1,
scooby_state_5555bc|50|-2 1,0,0,0,0,0,0,0,0,0,0,0,0,0,0,1,
scooby_state_41191a|32|-3 1,0,0,0,0,0,0,0,0,0,0,0,0,0,0,1,
scooby_state_4340f0|45|-18 1,0,0,0,0,0,0,0,0,0,0,0,0,0,0,1,
scooby_state_44427d|16|0 0,0,0,0,0,0,0,0,0,0,1,0,0,0,0,1,
scooby_state_444216|44|-18 0,0,0,0,0,0,1,0,0,0,0,0,0,0,0,1,
scooby_state_443fc0|63|1 1,0,0,0,0,0,0,0,0,0,0,0,0,0,0,1,
scooby_state_54c983|38|1 1,0,0,0,0,0,0,0,0,0,0,0,0,0,0,1,

scooby_action_0_deg_dist 0,5203,0,0,0,0,0,0,0,0,0,0,0,0,0,0,
scooby_action_-6_deg_dist 0,6725,13,0,1,0,0,0,0,0,0,0,0,0,0,0,
scooby_action_4_deg_dist 0,6083,2,0,0,0,0,0,0,0,0,0,0,0,0,0,
scooby_action_1_deg_dist 0,107143,6395,0,4674,0,315,0,0,0,0,0,0,0,0,0,
scooby_action_30_deg_dist 0,2568,2,0,0,0,0,0,0,0,0,0,0,0,0,0,
scooby_action_5_deg_dist 0,4028,9,0,0,0,0,0,0,0,0,0,0,0,0,0,
scooby_action_3_deg_dist 0,20231,275,0,74,0,28,0,0,0,0,0,0,0,0,0,
scooby_action_32_deg_dist 0,2462,0,0,0,0,0,0,0,0,0,0,0,0,0,0,
scooby_action_10_deg_dist 0,3107,0,0,0,0,0,0,0,0,0,0,0,0,0,0,
scooby_action_11_deg_dist 0,2960,3,0,0,0,0,0,0,0,0,0,0,0,0,0,
scooby_action_12_deg_dist 0,2949,1,0,0,0,0,0,0,0,0,0,0,0,0,0,
scooby_action_23_deg_dist 0,2625,0,0,0,0,0,0,0,0,0,0,0,0,0,0,
scooby_action_-1_deg_dist 0,14368,61,0,11,0,0,0,0,0,0,0,0,0,0,0,
scooby_action_22_deg_dist 0,2578,0,0,0,0,0,0,0,0,0,0,0,0,0,0,
scooby_action_-3_deg_dist 0,7530,0,0,0,0,0,0,0,0,0,0,0,0,0,0,

scooby_track_called 202424
scooby_track_same_address 16059
scooby_track_evict 186109

scooby_reward_demand_called 202424
scooby_reward_demand_pt_not_found 160641
scooby_reward_demand_pt_found 41783
scooby_reward_demand_pt_found_total 41783
scooby_reward_demand_has_reward 309
scooby_reward_train_called 134428
scooby_reward_assign_reward_called 186171
scooby_reward_no_pref 5201
scooby_reward_incorrect 129227
scooby_reward_correct_untimely 17023
scooby_reward_correct_timely 24451
scooby_reward_out_of_bounds 10269
scooby_reward_tracker_hit 0

scooby_reward_none_low_bw 5201
scooby_reward_none_high_bw 0
scooby_reward_incorrect_low_bw 129227
scooby_reward_incorrect_high_bw 0
scooby_reward_correct_untimely_low_bw 17023
scooby_reward_correct_untimely_high_bw 0
scooby_reward_correct_timely_low_bw 24451
scooby_reward_correct_timely_high_bw 0
scooby_reward_out_of_bounds_low_bw 10269
scooby_reward_out_of_bounds_high_bw 0
scooby_reward_tracker_hit_low_bw 0
scooby_reward_tracker_hit_high_bw 0

scooby_reward_1 0,81260,12886,14218,1748,0,
scooby_reward_3 0,11572,438,6060,888,0,
scooby_reward_4 0,4030,1011,317,307,0,
scooby_reward_5 0,3026,51,321,272,0,
scooby_reward_10 0,2414,76,54,494,0,
scooby_reward_11 0,2284,24,47,460,0,
scooby_reward_12 0,2207,29,39,539,0,
scooby_reward_22 0,1639,16,13,871,0,
scooby_reward_23 0,1649,12,53,868,0,
scooby_reward_30 0,1396,5,7,1124,0,
scooby_reward_32 0,1257,9,6,1158,0,
scooby_reward_-1 0,7060,1994,1119,225,0,
scooby_reward_-3 0,5194,283,1025,409,0,
scooby_reward_-6 0,4239,189,1172,906,0,
scooby_reward_0 5201,0,0,0,0,0,

scooby_train_called 186108
scooby_train_compute_reward 134428

scooby_register_fill_called 122532
scooby_register_fill_set 113992
scooby_register_fill_set_total 113992

scooby_register_prefetch_hit_called 49515
scooby_register_prefetch_hit_set 46589
scooby_register_prefetch_hit_set_total 46589

scooby_pref_issue_scooby 188460

learning_engine_featurewise.action.called 202424
learning_engine_featurewise.action.explore 382
learning_engine_featurewise.action.exploit 202042
learning_engine_featurewise.action.fallback 58178
learning_engine_featurewise.action.dyn_fallback_saved_bw 0
learning_engine_featurewise.action.dyn_fallback_saved_bw_acc 7139
learning_engine_featurewise.action.index_1_explored 25
learning_engine_featurewise.action.index_1_exploited 118502
learning_engine_featurewise.action.index_3_explored 30
learning_engine_featurewise.action.index_3_exploited 20578
learning_engine_featurewise.action.index_4_explored 22
learning_engine_featurewise.action.index_4_exploited 6063
learning_engine_featurewise.action.index_5_explored 23
learning_engine_featurewise.action.index_5_exploited 4014
learning_engine_featurewise.action.index_10_explored 35
learning_engine_featurewise.action.index_10_exploited 3072
learning_engine_featurewise.action.index_11_explored 26
learning_engine_featurewise.action.index_11_exploited 2937
learning_engine_featurewise.action.index_12_explored 23
learning_engine_featurewise.action.index_12_exploited 2927
learning_engine_featurewise.action.index_22_explored 33
learning_engine_featurewise.action.index_22_exploited 2545
learning_engine_featurewise.action.index_23_explored 23
learning_engine_featurewise.action.index_23_exploited 2602
learning_engine_featurewise.action.index_30_explored 29
learning_engine_featurewise.action.index_30_exploited 2541
learning_engine_featurewise.action.index_32_explored 20
learning_engine_featurewise.action.index_32_exploited 2442
learning_engine_featurewise.action.index_-1_explored 21
learning_engine_featurewise.action.index_-1_exploited 14419
learning_engine_featurewise.action.index_-3_explored 20
learning_engine_featurewise.action.index_-3_exploited 7510
learning_engine_featurewise.action.index_-6_explored 22
learning_engine_featurewise.action.index_-6_exploited 6717
learning_engine_featurewise.action.index_0_explored 30
learning_engine_featurewise.action.index_0_exploited 5173
learning_engine_featurewise.learn.called 186108
learning_engine_featurewise.learn.su_skip_PC 0
learning_engine_featurewise.learn.su_skip_PC_Delta 0

learning_engine_featurewise.q_value_histogram.bucket_0 113
learning_engine_featurewise.q_value_histogram.bucket_1 712
learning_engine_featurewise.q_value_histogram.bucket_2 77561
learning_engine_featurewise.q_value_histogram.bucket_3 37521
learning_engine_featurewise.q_value_histogram.bucket_4 34125
learning_engine_featurewise.q_value_histogram.bucket_5 29433
learning_engine_featurewise.q_value_histogram.bucket_6 22577
learning_engine_featurewise.q_value_histogram.bucket_7 0

learning_engine_featurewise.consensus.total 202042
learning_engine_featurewise.consensus.feature_align_PC 154879
learning_engine_featurewise.consensus.feature_align_PC_ratio 0.77
learning_engine_featurewise.consensus.feature_align_PC_Delta 161673
learning_engine_featurewise.consensus.feature_align_PC_Delta_ratio 0.80
learning_engine_featurewise.consensus.feature_align_all 115333
learning_engine_featurewise.consensus.feature_align_all_ratio 0.57

learning_engine_featurewise.feature_PC_min_weight 1000000.00000000
learning_engine_featurewise.feature_PC_max_weight 0.00000000
learning_engine_featurewise.feature_PC_Delta_min_weight 1000000.00000000
learning_engine_featurewise.feature_PC_Delta_max_weight 0.00000000
unique_pcs 868
unique_pages 23013
unique_trigger_pcs 504
total_bitmaps_seen 0
unique_bitmaps_seen 0

scooby_bw_epochs 167075
scooby_bw_level_0 156055
scooby_bw_level_1 10807
scooby_bw_level_2 213
scooby_bw_level_3 0

scooby_ipc_epochs 0
scooby_ipc_level_0 0
scooby_ipc_level_1 0
scooby_ipc_level_2 0
scooby_ipc_level_3 0

scooby_cache_acc_epochs 37097
scooby_cache_acc_level_0 8238
scooby_cache_acc_level_1 6946
scooby_cache_acc_level_2 7063
scooby_cache_acc_level_3 5126
scooby_cache_acc_level_4 2671
scooby_cache_acc_level_5 3099
scooby_cache_acc_level_6 1548
scooby_cache_acc_level_7 790
scooby_cache_acc_level_8 417
scooby_cache_acc_level_9 1199

Channel_0_RQ_row_buffer_hit 37691
Channel_0_RQ_row_buffer_miss 117417
Channel_0_WQ_row_buffer_hit 6833
Channel_0_WQ_row_buffer_miss 30019
Channel_0_WQ_full 0
Channel_0_dbus_congested 63808

avg_congested_cycle 7

DRAM_bw_pochs 167075
DRAM_bw_level_0 156055
DRAM_bw_level_1 10807
DRAM_bw_level_2 213
DRAM_bw_level_3 0
