Original cmd-> /cluster/home/vlnitu/CA-Lab4-24-vlnitu/Pythia/bin/perceptron-no-multi-no-ship-1core --warmup_instructions=1000000 --simulation_instructions=10000000 --l2c_prefetcher_types=scooby --config=/cluster/home/vlnitu/CA-Lab4-24-vlnitu/Pythia/config/pythia.ini --mail-type=BEGIN,END  -traces /cluster/home/vlnitu/CA-Lab4-24-vlnitu/Pythia/traces/621.wrf_s-6673B.champsimtrace.xz
*************************************************
   ChampSim Multicore Out-of-Order Simulator
   Last compiled: Nov 19 2024 20:10:11
*************************************************
parsing config file: /cluster/home/vlnitu/CA-Lab4-24-vlnitu/Pythia/config/pythia.ini
unable to parse section: , name: mail-type, value: BEGIN,END

trace_0 /cluster/home/vlnitu/CA-Lab4-24-vlnitu/Pythia/traces/621.wrf_s-6673B.champsimtrace.xz
adding L2C_PREFETCHER: Scooby
Initialize SHIP state
warmup_instructions 1000000
simulation_instructions 10000000
champsim_seed 280
measure_ipc 0
measure_ipc_epoch 1000
measure_dram_bw 1
measure_dram_bw_epoch 256
measure_cache_acc 1
measure_cache_acc_epoch 1024
l1d_perfect 0
l2c_perfect 0
llc_perfect 0
l1d_semi_perfect 0
l2c_semi_perfect 0
llc_semi_perfect 0
semi_perfect_cache_page_buffer_size 64

num_cpus 1
cpu_freq 4000
dram_io_freq 2400
page_size 4096
block_size 64
max_read_per_cycle 8
max_fill_per_cycle 1
dram_channels 1
log2_dram_channels 0
dram_ranks 1
dram_banks 8
dram_rows 65536
dram_columns 128
dram_row_size 8
dram_size 4096
dram_pages 1048576

fetch_width 6
decode_width 6
exec_width 4
lq_width 2
sq_width 2
retire_width 4
scheduler_size 128
branch_mispredict_penalty 20
rob_size 256
lq_size 72
sq_size 56
num_instr_destinations_sparc 4
num_instr_destinations 2
num_instr_sources 4

itlb_set 16
itlb_way 8
itlb_rq_size 16
itlb_wq_size 16
itlb_pq_size 0
itlb_mshr_size 8
itlb_latency 1

dtlb_set 16
dtlb_way 4
dtlb_rq_size 16
dtlb_wq_size 16
dtlb_pq_size 0
dtlb_mshr_size 8
dtlb_latency 1

stlb_set 128
stlb_way 12
stlb_rq_size 32
stlb_wq_size 32
stlb_pq_size 0
stlb_mshr_size 16
stlb_latency 8

l1i_size 32
l1i_set 64
l1i_way 8
l1i_rq_size 64
l1i_wq_size 64
l1i_pq_size 8
l1i_mshr_size 8
l1i_latency 1

l1d_size 32
l1d_set 64
l1d_way 8
l1d_rq_size 64
l1d_wq_size 64
l1d_pq_size 8
l1d_mshr_size 16
l1d_latency 4

l2c_size 256
l2c_set 512
l2c_way 8
l2c_rq_size 32
l2c_wq_size 32
l2c_pq_size 32
l2c_mshr_size 32
l2c_latency 10

llc_size 2048
llc_set 2048
llc_way 16
llc_rq_size 32
llc_wq_size 32
llc_pq_size 32
llc_mshr_size 64
llc_latency 20

dram_channel_width 8
dram_wq_size 64
dram_rq_size 64
tRP 15
tRCD 15
tCAS 12.5
dram_dbus_turn_around_time 30
dram_write_high_wm 56
dram_write_low_wm 48
min_dram_writes_per_switch 16
dram_mtps 2400
dram_dbus_return_time 13

scooby_alpha 0.0065088
scooby_gamma 0.556301
scooby_epsilon 0.00182284
scooby_state_num_bits 10
scooby_max_states 1024
scooby_seed 200
scooby_policy EGreedy
scooby_learning_type SARSA
scooby_actions 1,3,4,5,10,11,12,22,23,30,32,-1,-3,-6,0,
scooby_max_actions 15
scooby_pt_size 256
scooby_st_size 64
scooby_max_pcs 5
scooby_max_offsets 5
scooby_max_deltas 5
scooby_reward_none -4
scooby_reward_incorrect -8
scooby_reward_correct_untimely 12
scooby_reward_correct_timely 20
scooby_brain_zero_init 0
scooby_enable_reward_all 0
scooby_enable_track_multiple 0
scooby_enable_reward_out_of_bounds 1
scooby_reward_out_of_bounds -12
scooby_state_type 1
scooby_state_hash_type 11
scooby_access_debug 0
scooby_print_access_debug 0
scooby_print_access_debug_pc deadbeef
scooby_print_access_debug_pc_count 0
scooby_print_trace 0
scooby_enable_state_action_stats 1
scooby_enable_reward_tracker_hit 0
scooby_reward_tracker_hit -2
scooby_enable_featurewise_engine 1
scooby_pref_degree 1
scooby_enable_dyn_degree 1
scooby_max_to_avg_q_thresholds 0.5,1,2,
scooby_dyn_degrees 1,2,4,4,
scooby_multi_deg_select_type 2
scooby_last_pref_offset_conf_thresholds 1,3,8,
scooby_dyn_degrees_type2 1,2,4,6,
scooby_action_tracker_size 2
scooby_high_bw_thresh 4
scooby_enable_hbw_reward 1
scooby_reward_hbw_correct_timely 20
scooby_reward_hbw_correct_untimely 12
scooby_reward_hbw_incorrect -14
scooby_reward_hbw_none -2
scooby_reward_hbw_out_of_bounds -12
scooby_reward_hbw_tracker_hit -2
scooby_last_pref_offset_conf_thresholds_hbw 1,3,8,
scooby_dyn_degrees_type2_hbw 1,2,4,6,

le_enable_trace 0
le_trace_interval 0
le_trace_file_name 
le_trace_state 0
le_enable_score_plot 0
le_plot_file_name 
le_plot_actions 
le_enable_action_trace 0
le_action_trace_interval 0
le_action_trace_name 
le_enable_action_plot 0

le_featurewise_active_features PC, PC_Delta
le_featurewise_num_tilings 3,3,
le_featurewise_num_tiles 128,128,
le_featurewise_hash_types 2,2,
le_featurewise_enable_tiling_offset 1,1,
le_featurewise_max_q_thresh 0.5
le_featurewise_enable_action_fallback 1
le_featurewise_feature_weights 1,1,
le_featurewise_enable_dynamic_weight 0
le_featurewise_weight_gradient 0.001
le_featurewise_disable_adjust_weight_all_features_align 1
le_featurewise_selective_update 0
le_featurewise_pooling_type 2
le_featurewise_enable_dyn_action_fallback 1
le_featurewise_bw_acc_check_level 1
le_featurewise_acc_thresh 2
le_featurewise_enable_trace 0
le_featurewise_trace_feature_type 0
le_featurewise_trace_feature 
le_featurewise_trace_interval 0
le_featurewise_trace_record_count 0
le_featurewise_trace_file_name 
le_featurewise_enable_score_plot 0
le_featurewise_plot_actions 
le_featurewise_plot_file_name 


Heartbeat CPU  0 instructions:    1000001 cycles:     439900 heartbeat IPC: 2.27325 cumulative IPC: 2.27325 (Simulation time: 0 hr 0 min 1 sec) 

Warmup complete CPU  0 instructions:    1000001 cycles:     439900 (Simulation time: 0 hr 0 min 1 sec) 

Heartbeat CPU  0 instructions:    2000002 cycles:    1287656 heartbeat IPC: 1.17959 cumulative IPC: 1.17959 (Simulation time: 0 hr 0 min 3 sec) 
Heartbeat CPU  0 instructions:    3000001 cycles:    2584730 heartbeat IPC: 0.77097 cumulative IPC: 0.93247 (Simulation time: 0 hr 0 min 5 sec) 
Heartbeat CPU  0 instructions:    4000000 cycles:    4079899 heartbeat IPC: 0.66882 cumulative IPC: 0.82418 (Simulation time: 0 hr 0 min 7 sec) 
Heartbeat CPU  0 instructions:    5000003 cycles:    5590806 heartbeat IPC: 0.66186 cumulative IPC: 0.77656 (Simulation time: 0 hr 0 min 9 sec) 
Heartbeat CPU  0 instructions:    6000003 cycles:    7108010 heartbeat IPC: 0.65911 cumulative IPC: 0.74984 (Simulation time: 0 hr 0 min 11 sec) 
Heartbeat CPU  0 instructions:    7000000 cycles:    8616561 heartbeat IPC: 0.66289 cumulative IPC: 0.73380 (Simulation time: 0 hr 0 min 13 sec) 
Heartbeat CPU  0 instructions:    8000000 cycles:   10126605 heartbeat IPC: 0.66223 cumulative IPC: 0.72264 (Simulation time: 0 hr 0 min 14 sec) 
Heartbeat CPU  0 instructions:    9000002 cycles:   11630732 heartbeat IPC: 0.66484 cumulative IPC: 0.71487 (Simulation time: 0 hr 0 min 16 sec) 
Heartbeat CPU  0 instructions:   10000003 cycles:   12947928 heartbeat IPC: 0.75919 cumulative IPC: 0.71954 (Simulation time: 0 hr 0 min 18 sec) 
Heartbeat CPU  0 instructions:   11000001 cycles:   13632227 heartbeat IPC: 1.46135 cumulative IPC: 0.75802 (Simulation time: 0 hr 0 min 20 sec) 
Finished CPU 0 instructions: 10000000 cycles: 13192327 cumulative IPC: 0.75802 (Simulation time: 0 hr 0 min 20 sec) 

ChampSim completed all CPUs

[ROI Statistics]
Core_0_instructions 10000000
Core_0_cycles 13192327
Core_0_IPC 0.75802

Core_0_branch_prediction_accuracy 99.13713
Core_0_branch_MPKI 0.64940
Core_0_average_ROB_occupancy_at_mispredict 211.94441

Core_0_L1D_total_access 3349863
Core_0_L1D_total_hit 3267300
Core_0_L1D_total_miss 82563
Core_0_L1D_loads 3016840
Core_0_L1D_load_hit 2934969
Core_0_L1D_load_miss 81871
Core_0_L1D_RFOs 333023
Core_0_L1D_RFO_hit 332331
Core_0_L1D_RFO_miss 692
Core_0_L1D_prefetches 0
Core_0_L1D_prefetch_hit 0
Core_0_L1D_prefetch_miss 0
Core_0_L1D_writebacks 0
Core_0_L1D_writeback_hit 0
Core_0_L1D_writeback_miss 0
Core_0_L1D_prefetch_requested 0
Core_0_L1D_prefetch_dropped 0
Core_0_L1D_prefetch_issued 0
Core_0_L1D_prefetch_filled 0
Core_0_L1D_prefetch_useful 0
Core_0_L1D_prefetch_useless 0
Core_0_L1D_prefetch_late 0
Core_0_L1D_average_miss_latency 25.47097

Core_0_L1D_rq_access 3904281
Core_0_L1D_rq_forward 0
Core_0_L1D_rq_merged 857427
Core_0_L1D_rq_to_cache 3046854
Core_0_L1D_rq_full 0

Core_0_L1D_wq_access 333290
Core_0_L1D_wq_forward 0
Core_0_L1D_wq_merged 0
Core_0_L1D_wq_to_cache 333290
Core_0_L1D_wq_full 0

Core_0_L1D_pq_access 0
Core_0_L1D_pq_forward 0
Core_0_L1D_pq_merged 0
Core_0_L1D_pq_to_cache 0
Core_0_L1D_pq_full 0

Core_0_L1D_acc_epochs 13195
Core_0_L1D_acc_level_0 13195
Core_0_L1D_acc_level_1 0
Core_0_L1D_acc_level_2 0
Core_0_L1D_acc_level_3 0
Core_0_L1D_acc_level_4 0
Core_0_L1D_acc_level_5 0
Core_0_L1D_acc_level_6 0
Core_0_L1D_acc_level_7 0
Core_0_L1D_acc_level_8 0
Core_0_L1D_acc_level_9 0

Core_0_L1I_total_access 3199838
Core_0_L1I_total_hit 3199712
Core_0_L1I_total_miss 126
Core_0_L1I_loads 3199838
Core_0_L1I_load_hit 3199712
Core_0_L1I_load_miss 126
Core_0_L1I_RFOs 0
Core_0_L1I_RFO_hit 0
Core_0_L1I_RFO_miss 0
Core_0_L1I_prefetches 0
Core_0_L1I_prefetch_hit 0
Core_0_L1I_prefetch_miss 0
Core_0_L1I_writebacks 0
Core_0_L1I_writeback_hit 0
Core_0_L1I_writeback_miss 0
Core_0_L1I_prefetch_requested 0
Core_0_L1I_prefetch_dropped 0
Core_0_L1I_prefetch_issued 0
Core_0_L1I_prefetch_filled 0
Core_0_L1I_prefetch_useful 0
Core_0_L1I_prefetch_useless 0
Core_0_L1I_prefetch_late 0
Core_0_L1I_average_miss_latency 159.10317

Core_0_L1I_rq_access 9999997
Core_0_L1I_rq_forward 0
Core_0_L1I_rq_merged 6800086
Core_0_L1I_rq_to_cache 3199911
Core_0_L1I_rq_full 0

Core_0_L1I_wq_access 0
Core_0_L1I_wq_forward 0
Core_0_L1I_wq_merged 0
Core_0_L1I_wq_to_cache 0
Core_0_L1I_wq_full 0

Core_0_L1I_pq_access 0
Core_0_L1I_pq_forward 0
Core_0_L1I_pq_merged 0
Core_0_L1I_pq_to_cache 0
Core_0_L1I_pq_full 0

Core_0_L1I_acc_epochs 13195
Core_0_L1I_acc_level_0 13195
Core_0_L1I_acc_level_1 0
Core_0_L1I_acc_level_2 0
Core_0_L1I_acc_level_3 0
Core_0_L1I_acc_level_4 0
Core_0_L1I_acc_level_5 0
Core_0_L1I_acc_level_6 0
Core_0_L1I_acc_level_7 0
Core_0_L1I_acc_level_8 0
Core_0_L1I_acc_level_9 0

Core_0_L2C_total_access 458511
Core_0_L2C_total_hit 380948
Core_0_L2C_total_miss 77563
Core_0_L2C_loads 81997
Core_0_L2C_load_hit 76914
Core_0_L2C_load_miss 5083
Core_0_L2C_RFOs 692
Core_0_L2C_RFO_hit 677
Core_0_L2C_RFO_miss 15
Core_0_L2C_prefetches 352265
Core_0_L2C_prefetch_hit 279807
Core_0_L2C_prefetch_miss 72458
Core_0_L2C_writebacks 23557
Core_0_L2C_writeback_hit 23550
Core_0_L2C_writeback_miss 7
Core_0_L2C_prefetch_requested 541882
Core_0_L2C_prefetch_dropped 10296
Core_0_L2C_prefetch_issued 531586
Core_0_L2C_prefetch_filled 92161
Core_0_L2C_prefetch_useful 89466
Core_0_L2C_prefetch_useless 2564
Core_0_L2C_prefetch_late 2692
Core_0_L2C_average_miss_latency 227.39190

Core_0_L2C_rq_access 82689
Core_0_L2C_rq_forward 0
Core_0_L2C_rq_merged 0
Core_0_L2C_rq_to_cache 82689
Core_0_L2C_rq_full 0

Core_0_L2C_wq_access 23557
Core_0_L2C_wq_forward 0
Core_0_L2C_wq_merged 0
Core_0_L2C_wq_to_cache 23557
Core_0_L2C_wq_full 0

Core_0_L2C_pq_access 531586
Core_0_L2C_pq_forward 0
Core_0_L2C_pq_merged 13213
Core_0_L2C_pq_to_cache 518373
Core_0_L2C_pq_full 0

Core_0_L2C_acc_epochs 13195
Core_0_L2C_acc_level_0 924
Core_0_L2C_acc_level_1 565
Core_0_L2C_acc_level_2 808
Core_0_L2C_acc_level_3 802
Core_0_L2C_acc_level_4 1282
Core_0_L2C_acc_level_5 892
Core_0_L2C_acc_level_6 974
Core_0_L2C_acc_level_7 1169
Core_0_L2C_acc_level_8 1350
Core_0_L2C_acc_level_9 4429

Core_0_LLC_total_access 99582
Core_0_LLC_total_hit 23231
Core_0_LLC_total_miss 76351
Core_0_LLC_loads 2399
Core_0_LLC_load_hit 94
Core_0_LLC_load_miss 2305
Core_0_LLC_RFOs 15
Core_0_LLC_RFO_hit 7
Core_0_LLC_RFO_miss 8
Core_0_LLC_prefetches 75142
Core_0_LLC_prefetch_hit 1167
Core_0_LLC_prefetch_miss 73975
Core_0_LLC_writebacks 22026
Core_0_LLC_writeback_hit 21963
Core_0_LLC_writeback_miss 63
Core_0_LLC_prefetch_requested 0
Core_0_LLC_prefetch_dropped 0
Core_0_LLC_prefetch_issued 0
Core_0_LLC_prefetch_filled 93678
Core_0_LLC_prefetch_useful 23
Core_0_LLC_prefetch_useless 61686
Core_0_LLC_prefetch_late 0
Core_0_LLC_average_miss_latency 205.76691

Core_0_LLC_rq_access 2414
Core_0_LLC_rq_forward 0
Core_0_LLC_rq_merged 0
Core_0_LLC_rq_to_cache 2414
Core_0_LLC_rq_full 0

Core_0_LLC_wq_access 22026
Core_0_LLC_wq_forward 0
Core_0_LLC_wq_merged 0
Core_0_LLC_wq_to_cache 22026
Core_0_LLC_wq_full 0

Core_0_LLC_pq_access 94856
Core_0_LLC_pq_forward 0
Core_0_LLC_pq_merged 0
Core_0_LLC_pq_to_cache 94856
Core_0_LLC_pq_full 0

Core_0_LLC_acc_epochs 13313
Core_0_LLC_acc_level_0 13310
Core_0_LLC_acc_level_1 3
Core_0_LLC_acc_level_2 0
Core_0_LLC_acc_level_3 0
Core_0_LLC_acc_level_4 0
Core_0_LLC_acc_level_5 0
Core_0_LLC_acc_level_6 0
Core_0_LLC_acc_level_7 0
Core_0_LLC_acc_level_8 0
Core_0_LLC_acc_level_9 0

Core_0_major_page_fault 0
Core_0_minor_page_fault 1556

scooby_st_lookup 106002
scooby_st_hit 104357
scooby_st_evict 1581
scooby_st_insert 1645
scooby_st_streaming 0

scooby_predict_called 106002
scooby_predict_out_of_bounds 1677
scooby_predict_action_1 104089
scooby_predict_issue_action_1 103681
scooby_predict_hit_action_1 408
scooby_predict_out_of_bounds_action_1 1623
scooby_predict_action_3 54
scooby_predict_issue_action_3 41
scooby_predict_hit_action_3 13
scooby_predict_out_of_bounds_action_3 4
scooby_predict_action_4 15
scooby_predict_issue_action_4 15
scooby_predict_hit_action_4 0
scooby_predict_out_of_bounds_action_4 1
scooby_predict_action_5 13
scooby_predict_issue_action_5 13
scooby_predict_hit_action_5 0
scooby_predict_out_of_bounds_action_5 0
scooby_predict_action_10 17
scooby_predict_issue_action_10 16
scooby_predict_hit_action_10 1
scooby_predict_out_of_bounds_action_10 5
scooby_predict_action_11 11
scooby_predict_issue_action_11 11
scooby_predict_hit_action_11 0
scooby_predict_out_of_bounds_action_11 6
scooby_predict_action_12 12
scooby_predict_issue_action_12 12
scooby_predict_hit_action_12 0
scooby_predict_out_of_bounds_action_12 3
scooby_predict_action_22 11
scooby_predict_issue_action_22 11
scooby_predict_hit_action_22 0
scooby_predict_out_of_bounds_action_22 6
scooby_predict_action_23 9
scooby_predict_issue_action_23 9
scooby_predict_hit_action_23 0
scooby_predict_out_of_bounds_action_23 8
scooby_predict_action_30 6
scooby_predict_issue_action_30 6
scooby_predict_hit_action_30 0
scooby_predict_out_of_bounds_action_30 11
scooby_predict_action_32 8
scooby_predict_issue_action_32 8
scooby_predict_hit_action_32 0
scooby_predict_out_of_bounds_action_32 7
scooby_predict_action_-1 22
scooby_predict_issue_action_-1 9
scooby_predict_hit_action_-1 13
scooby_predict_out_of_bounds_action_-1 0
scooby_predict_action_-3 10
scooby_predict_issue_action_-3 2
scooby_predict_hit_action_-3 8
scooby_predict_out_of_bounds_action_-3 2
scooby_predict_action_-6 37
scooby_predict_issue_action_-6 32
scooby_predict_hit_action_-6 5
scooby_predict_out_of_bounds_action_-6 1
scooby_predict_action_0 11
scooby_predict_issue_action_0 0
scooby_predict_hit_action_0 0
scooby_predict_out_of_bounds_action_0 0
scooby_predict_multi_deg_called 98231
scooby_predict_predicted 541882
scooby_predict_multi_deg 438016
scooby_predict_multi_deg_2 96618
scooby_predict_multi_deg_3 91758
scooby_predict_multi_deg_4 90152
scooby_predict_multi_deg_5 80544
scooby_predict_multi_deg_6 78944
scooby_predict_multi_deg_7 0
scooby_predict_multi_deg_8 0
scooby_predict_multi_deg_9 0
scooby_predict_multi_deg_10 0
scooby_predict_multi_deg_11 0
scooby_predict_multi_deg_12 0
scooby_predict_multi_deg_13 0
scooby_predict_multi_deg_14 0
scooby_predict_multi_deg_15 0
scooby_predict_multi_deg_16 0

scooby_selected_deg_1 5635
scooby_selected_deg_2 3261
scooby_selected_deg_3 0
scooby_selected_deg_4 8021
scooby_selected_deg_5 0
scooby_selected_deg_6 86949
scooby_selected_deg_7 0
scooby_selected_deg_8 0
scooby_selected_deg_9 0
scooby_selected_deg_10 0
scooby_selected_deg_11 0
scooby_selected_deg_12 0
scooby_selected_deg_13 0
scooby_selected_deg_14 0
scooby_selected_deg_15 0
scooby_selected_deg_16 0

scooby_state_9160fb|60|1 128,0,0,0,0,0,0,0,0,0,0,0,0,0,0,128,
scooby_state_9160fb|7|1 128,0,0,0,0,0,0,0,0,0,0,0,0,0,0,128,
scooby_state_916113|35|1 128,0,0,0,0,0,0,0,0,0,0,0,0,0,0,128,
scooby_state_916113|12|1 128,0,0,0,0,0,0,0,0,0,0,0,0,0,0,128,
scooby_state_916113|59|1 127,0,0,0,0,0,0,0,0,1,0,0,0,0,0,128,
scooby_state_91606d|35|1 128,0,0,0,0,0,0,0,0,0,0,0,0,0,0,128,
scooby_state_9160fb|59|1 128,0,0,0,0,0,0,0,0,0,0,0,0,0,0,128,
scooby_state_9160fb|34|1 128,0,0,0,0,0,0,0,0,0,0,0,0,0,0,128,
scooby_state_91606d|11|1 128,0,0,0,0,0,0,0,0,0,0,0,0,0,0,128,
scooby_state_91606d|34|1 128,0,0,0,0,0,0,0,0,0,0,0,0,0,0,128,
scooby_state_91606d|7|1 128,0,0,0,0,0,0,0,0,0,0,0,0,0,0,128,
scooby_state_916113|33|1 128,0,0,0,0,0,0,0,0,0,0,0,0,0,0,128,
scooby_state_91606d|39|1 127,0,0,0,0,0,0,1,0,0,0,0,0,0,0,128,
scooby_state_91606d|60|1 128,0,0,0,0,0,0,0,0,0,0,0,0,0,0,128,
scooby_state_9160fb|36|1 127,0,0,0,0,0,0,0,0,0,0,1,0,0,0,128,
scooby_state_916113|60|1 128,0,0,0,0,0,0,0,0,0,0,0,0,0,0,128,
scooby_state_916113|38|1 128,0,0,0,0,0,0,0,0,0,0,0,0,0,0,128,
scooby_state_91606d|33|1 128,0,0,0,0,0,0,0,0,0,0,0,0,0,0,128,
scooby_state_91606d|61|1 128,0,0,0,0,0,0,0,0,0,0,0,0,0,0,128,
scooby_state_91606d|10|1 128,0,0,0,0,0,0,0,0,0,0,0,0,0,0,128,
scooby_state_916113|61|1 128,0,0,0,0,0,0,0,0,0,0,0,0,0,0,128,
scooby_state_9160fb|62|1 128,0,0,0,0,0,0,0,0,0,0,0,0,0,0,128,
scooby_state_916113|16|1 127,0,0,0,0,0,0,0,0,0,0,0,0,1,0,128,
scooby_state_9160fb|14|1 127,0,0,0,0,0,0,0,0,0,1,0,0,0,0,128,
scooby_state_916113|62|1 127,0,1,0,0,0,0,0,0,0,0,0,0,0,0,128,
scooby_state_91606d|37|1 128,0,0,0,0,0,0,0,0,0,0,0,0,0,0,128,
scooby_state_91606d|9|1 127,1,0,0,0,0,0,0,0,0,0,0,0,0,0,128,
scooby_state_916113|41|1 128,0,0,0,0,0,0,0,0,0,0,0,0,0,0,128,
scooby_state_91606d|52|1 127,0,0,0,0,0,0,0,0,0,0,1,0,0,0,128,
scooby_state_91606d|53|1 128,0,0,0,0,0,0,0,0,0,0,0,0,0,0,128,
scooby_state_9160fb|53|1 128,0,0,0,0,0,0,0,0,0,0,0,0,0,0,128,
scooby_state_916113|54|1 128,0,0,0,0,0,0,0,0,0,0,0,0,0,0,128,
scooby_state_91606d|54|1 128,0,0,0,0,0,0,0,0,0,0,0,0,0,0,128,
scooby_state_9160fb|55|1 127,1,0,0,0,0,0,0,0,0,0,0,0,0,0,128,
scooby_state_9160fb|56|1 128,0,0,0,0,0,0,0,0,0,0,0,0,0,0,128,
scooby_state_91606d|57|1 128,0,0,0,0,0,0,0,0,0,0,0,0,0,0,128,
scooby_state_9160fb|43|1 128,0,0,0,0,0,0,0,0,0,0,0,0,0,0,128,
scooby_state_91606d|43|1 128,0,0,0,0,0,0,0,0,0,0,0,0,0,0,128,
scooby_state_9160fb|42|1 128,0,0,0,0,0,0,0,0,0,0,0,0,0,0,128,
scooby_state_9160fb|9|1 128,0,0,0,0,0,0,0,0,0,0,0,0,0,0,128,
scooby_state_9160fb|0|0 127,0,0,0,0,0,0,0,0,0,1,0,0,0,0,128,
scooby_state_9160fb|41|1 128,0,0,0,0,0,0,0,0,0,0,0,0,0,0,128,
scooby_state_91606d|41|1 128,0,0,0,0,0,0,0,0,0,0,0,0,0,0,128,
scooby_state_916113|39|1 128,0,0,0,0,0,0,0,0,0,0,0,0,0,0,128,
scooby_state_9160fb|38|1 128,0,0,0,0,0,0,0,0,0,0,0,0,0,0,128,
scooby_state_916113|37|1 128,0,0,0,0,0,0,0,0,0,0,0,0,0,0,128,
scooby_state_9160fb|37|1 128,0,0,0,0,0,0,0,0,0,0,0,0,0,0,128,
scooby_state_9160fb|57|1 126,0,0,1,1,0,0,0,0,0,0,0,0,0,0,128,
scooby_state_916113|57|1 128,0,0,0,0,0,0,0,0,0,0,0,0,0,0,128,
scooby_state_916113|53|1 126,0,0,0,0,0,0,1,0,1,0,0,0,0,0,128,
scooby_state_916113|34|1 128,0,0,0,0,0,0,0,0,0,0,0,0,0,0,128,
scooby_state_916113|0|0 128,0,0,0,0,0,0,0,0,0,0,0,0,0,0,128,
scooby_state_916113|58|1 127,0,0,0,0,0,0,1,0,0,0,0,0,0,0,128,
scooby_state_91606d|13|1 127,0,0,0,0,0,0,0,0,1,0,0,0,0,0,128,
scooby_state_9160fb|58|1 128,0,0,0,0,0,0,0,0,0,0,0,0,0,0,128,
scooby_state_916113|14|1 127,0,0,1,0,0,0,0,0,0,0,0,0,0,0,128,
scooby_state_9160fb|40|1 128,0,0,0,0,0,0,0,0,0,0,0,0,0,0,128,
scooby_state_916113|55|1 128,0,0,0,0,0,0,0,0,0,0,0,0,0,0,128,
scooby_state_91606d|14|1 127,0,0,0,1,0,0,0,0,0,0,0,0,0,0,128,
scooby_state_9160fb|33|1 127,0,0,0,0,0,0,0,0,0,1,0,0,0,0,128,
scooby_state_916113|13|1 128,0,0,0,0,0,0,0,0,0,0,0,0,0,0,128,
scooby_state_9160fb|39|1 128,0,0,0,0,0,0,0,0,0,0,0,0,0,0,128,
scooby_state_916113|42|1 127,0,0,0,0,0,0,0,1,0,0,0,0,0,0,128,
scooby_state_9160fb|35|1 127,0,1,0,0,0,0,0,0,0,0,0,0,0,0,128,
scooby_state_91606d|36|1 128,0,0,0,0,0,0,0,0,0,0,0,0,0,0,128,
scooby_state_91606d|38|1 128,0,0,0,0,0,0,0,0,0,0,0,0,0,0,128,
scooby_state_9160fb|13|1 128,0,0,0,0,0,0,0,0,0,0,0,0,0,0,128,
scooby_state_9160fb|15|1 126,0,0,0,0,0,0,0,1,0,0,0,1,0,0,128,
scooby_state_9160fb|12|1 128,0,0,0,0,0,0,0,0,0,0,0,0,0,0,128,
scooby_state_91606d|12|1 127,0,0,0,0,0,0,0,0,0,0,1,0,0,0,128,
scooby_state_916113|52|1 128,0,0,0,0,0,0,0,0,0,0,0,0,0,0,128,
scooby_state_91606d|55|1 128,0,0,0,0,0,0,0,0,0,0,0,0,0,0,128,
scooby_state_916113|11|1 128,0,0,0,0,0,0,0,0,0,0,0,0,0,0,128,
scooby_state_91606d|42|1 127,0,0,0,0,0,0,1,0,0,0,0,0,0,0,128,
scooby_state_9160fb|11|1 128,0,0,0,0,0,0,0,0,0,0,0,0,0,0,128,
scooby_state_916113|40|1 128,0,0,0,0,0,0,0,0,0,0,0,0,0,0,128,
scooby_state_91606d|58|1 128,0,0,0,0,0,0,0,0,0,0,0,0,0,0,128,
scooby_state_916113|9|1 128,0,0,0,0,0,0,0,0,0,0,0,0,0,0,128,
scooby_state_916113|36|1 128,0,0,0,0,0,0,0,0,0,0,0,0,0,0,128,
scooby_state_916113|10|1 128,0,0,0,0,0,0,0,0,0,0,0,0,0,0,128,
scooby_state_9160fb|10|1 128,0,0,0,0,0,0,0,0,0,0,0,0,0,0,128,
scooby_state_916113|15|1 128,0,0,0,0,0,0,0,0,0,0,0,0,0,0,128,
scooby_state_91606d|15|1 128,0,0,0,0,0,0,0,0,0,0,0,0,0,0,128,
scooby_state_9160fb|61|1 127,0,0,0,0,1,0,0,0,0,0,0,0,0,0,128,
scooby_state_9160fb|52|1 127,0,0,0,0,0,0,0,0,0,0,0,1,0,0,128,
scooby_state_91606d|8|1 128,0,0,0,0,0,0,0,0,0,0,0,0,0,0,128,
scooby_state_91606d|59|1 128,0,0,0,0,0,0,0,0,0,0,0,0,0,0,128,
scooby_state_91606d|56|1 128,0,0,0,0,0,0,0,0,0,0,0,0,0,0,128,
scooby_state_916113|43|1 128,0,0,0,0,0,0,0,0,0,0,0,0,0,0,128,
scooby_state_916113|7|1 127,0,0,0,0,0,0,0,0,0,0,0,0,1,0,128,
scooby_state_9160fb|54|1 128,0,0,0,0,0,0,0,0,0,0,0,0,0,0,128,
scooby_state_91606d|40|1 127,0,0,0,0,0,0,0,1,0,0,0,0,0,0,128,
scooby_state_9160fb|8|1 128,0,0,0,0,0,0,0,0,0,0,0,0,0,0,128,
scooby_state_916113|56|1 127,0,0,0,0,0,1,0,0,0,0,0,0,0,0,128,
scooby_state_916113|17|1 128,0,0,0,0,0,0,0,0,0,0,0,0,0,0,128,
scooby_state_91606d|0|0 126,0,0,0,0,0,0,0,0,0,0,0,2,0,0,128,
scooby_state_9160fb|17|1 128,0,0,0,0,0,0,0,0,0,0,0,0,0,0,128,
scooby_state_91606d|17|1 128,0,0,0,0,0,0,0,0,0,0,0,0,0,0,128,
scooby_state_916113|8|1 128,0,0,0,0,0,0,0,0,0,0,0,0,0,0,128,
scooby_state_9160fb|16|1 127,0,0,0,0,0,0,0,1,0,0,0,0,0,0,128,
scooby_state_91606d|62|1 127,0,0,0,0,1,0,0,0,0,0,0,0,0,0,128,
scooby_state_91606d|16|1 127,0,0,0,0,0,1,0,0,0,0,0,0,0,0,128,
scooby_state_9160fb|5|1 127,0,0,0,0,0,0,0,0,0,0,0,0,0,0,127,
scooby_state_91606d|4|1 127,0,0,0,0,0,0,0,0,0,0,0,0,0,0,127,
scooby_state_916113|1|1 127,0,0,0,0,0,0,0,0,0,0,0,0,0,0,127,
scooby_state_91606d|63|1 127,0,0,0,0,0,0,0,0,0,0,0,0,0,0,127,
scooby_state_91606d|1|1 127,0,0,0,0,0,0,0,0,0,0,0,0,0,0,127,
scooby_state_9160fb|4|1 125,0,0,0,0,0,0,1,0,0,0,0,0,0,1,127,
scooby_state_91606d|22|1 127,0,0,0,0,0,0,0,0,0,0,0,0,0,0,127,
scooby_state_91606d|24|1 127,0,0,0,0,0,0,0,0,0,0,0,0,0,0,127,
scooby_state_91606d|46|1 127,0,0,0,0,0,0,0,0,0,0,0,0,0,0,127,
scooby_state_916113|51|1 126,0,0,0,1,0,0,0,0,0,0,0,0,0,0,127,
scooby_state_916113|3|1 126,0,0,1,0,0,0,0,0,0,0,0,0,0,0,127,
scooby_state_916113|45|1 127,0,0,0,0,0,0,0,0,0,0,0,0,0,0,127,
scooby_state_916113|49|1 127,0,0,0,0,0,0,0,0,0,0,0,0,0,0,127,
scooby_state_9160fb|19|1 127,0,0,0,0,0,0,0,0,0,0,0,0,0,0,127,
scooby_state_916113|21|1 127,0,0,0,0,0,0,0,0,0,0,0,0,0,0,127,
scooby_state_9160fb|46|1 126,0,0,0,0,0,0,0,0,0,0,0,0,0,1,127,
scooby_state_9160fb|21|1 127,0,0,0,0,0,0,0,0,0,0,0,0,0,0,127,
scooby_state_9160fb|48|1 126,0,0,0,0,0,0,0,0,1,0,0,0,0,0,127,
scooby_state_9160fb|63|1 127,0,0,0,0,0,0,0,0,0,0,0,0,0,0,127,
scooby_state_916113|6|1 127,0,0,0,0,0,0,0,0,0,0,0,0,0,0,127,
scooby_state_91606d|6|1 126,0,0,0,0,0,0,0,0,1,0,0,0,0,0,127,
scooby_state_9160fb|2|1 126,0,0,0,1,0,0,0,0,0,0,0,0,0,0,127,
scooby_state_9160fb|22|1 126,0,0,0,0,0,0,0,0,0,0,0,0,0,1,127,
scooby_state_9160fb|31|1 127,0,0,0,0,0,0,0,0,0,0,0,0,0,0,127,
scooby_state_916113|5|1 127,0,0,0,0,0,0,0,0,0,0,0,0,0,0,127,
scooby_state_91606d|50|1 126,0,0,0,0,0,0,0,1,0,0,0,0,0,0,127,
scooby_state_91606d|27|1 127,0,0,0,0,0,0,0,0,0,0,0,0,0,0,127,
scooby_state_916113|2|1 126,0,0,0,0,0,0,1,0,0,0,0,0,0,0,127,
scooby_state_91606d|45|1 127,0,0,0,0,0,0,0,0,0,0,0,0,0,0,127,
scooby_state_9160fb|18|1 126,0,0,0,0,0,0,0,1,0,0,0,0,0,0,127,
scooby_state_9160fb|24|1 127,0,0,0,0,0,0,0,0,0,0,0,0,0,0,127,
scooby_state_916113|31|1 126,0,0,1,0,0,0,0,0,0,0,0,0,0,0,127,
scooby_state_91606d|20|1 127,0,0,0,0,0,0,0,0,0,0,0,0,0,0,127,
scooby_state_916113|50|1 127,0,0,0,0,0,0,0,0,0,0,0,0,0,0,127,
scooby_state_9160fb|49|1 127,0,0,0,0,0,0,0,0,0,0,0,0,0,0,127,
scooby_state_916113|47|1 127,0,0,0,0,0,0,0,0,0,0,0,0,0,0,127,
scooby_state_91606d|47|1 127,0,0,0,0,0,0,0,0,0,0,0,0,0,0,127,
scooby_state_916113|46|1 127,0,0,0,0,0,0,0,0,0,0,0,0,0,0,127,
scooby_state_9160fb|44|1 127,0,0,0,0,0,0,0,0,0,0,0,0,0,0,127,
scooby_state_91606d|44|1 127,0,0,0,0,0,0,0,0,0,0,0,0,0,0,127,
scooby_state_916113|24|1 127,0,0,0,0,0,0,0,0,0,0,0,0,0,0,127,
scooby_state_91606d|51|1 126,0,1,0,0,0,0,0,0,0,0,0,0,0,0,127,
scooby_state_91606d|2|1 127,0,0,0,0,0,0,0,0,0,0,0,0,0,0,127,
scooby_state_91606d|3|1 127,0,0,0,0,0,0,0,0,0,0,0,0,0,0,127,
scooby_state_9160fb|30|1 127,0,0,0,0,0,0,0,0,0,0,0,0,0,0,127,
scooby_state_9160fb|51|1 127,0,0,0,0,0,0,0,0,0,0,0,0,0,0,127,
scooby_state_9160fb|20|1 127,0,0,0,0,0,0,0,0,0,0,0,0,0,0,127,
scooby_state_91606d|23|1 127,0,0,0,0,0,0,0,0,0,0,0,0,0,0,127,
scooby_state_91606d|49|1 127,0,0,0,0,0,0,0,0,0,0,0,0,0,0,127,
scooby_state_916113|48|1 126,0,0,0,0,1,0,0,0,0,0,0,0,0,0,127,
scooby_state_91606d|29|1 126,0,0,0,0,0,1,0,0,0,0,0,0,0,0,127,
scooby_state_91606d|32|1 127,0,0,0,0,0,0,0,0,0,0,0,0,0,0,127,
scooby_state_916113|30|1 127,0,0,0,0,0,0,0,0,0,0,0,0,0,0,127,
scooby_state_9160fb|50|1 126,0,0,0,0,0,1,0,0,0,0,0,0,0,0,127,
scooby_state_916113|63|1 127,0,0,0,0,0,0,0,0,0,0,0,0,0,0,127,
scooby_state_9160fb|3|1 127,0,0,0,0,0,0,0,0,0,0,0,0,0,0,127,
scooby_state_916113|44|1 127,0,0,0,0,0,0,0,0,0,0,0,0,0,0,127,
scooby_state_9160fb|47|1 127,0,0,0,0,0,0,0,0,0,0,0,0,0,0,127,
scooby_state_916113|28|1 126,0,0,0,1,0,0,0,0,0,0,0,0,0,0,127,
scooby_state_91606d|5|1 126,0,0,0,0,0,0,0,0,0,0,1,0,0,0,127,
scooby_state_91606d|21|1 127,0,0,0,0,0,0,0,0,0,0,0,0,0,0,127,
scooby_state_9160fb|1|1 126,0,0,0,0,0,0,1,0,0,0,0,0,0,0,127,
scooby_state_916113|18|1 127,0,0,0,0,0,0,0,0,0,0,0,0,0,0,127,
scooby_state_9160fb|23|1 127,0,0,0,0,0,0,0,0,0,0,0,0,0,0,127,
scooby_state_91606d|48|1 127,0,0,0,0,0,0,0,0,0,0,0,0,0,0,127,
scooby_state_9160fb|6|1 127,0,0,0,0,0,0,0,0,0,0,0,0,0,0,127,
scooby_state_9160fb|45|1 127,0,0,0,0,0,0,0,0,0,0,0,0,0,0,127,
scooby_state_9160fb|27|1 126,0,0,0,0,0,0,0,1,0,0,0,0,0,0,127,
scooby_state_91606d|30|1 127,0,0,0,0,0,0,0,0,0,0,0,0,0,0,127,
scooby_state_916113|4|1 127,0,0,0,0,0,0,0,0,0,0,0,0,0,0,127,
scooby_state_9160fb|32|1 127,0,0,0,0,0,0,0,0,0,0,0,0,0,0,127,
scooby_state_916113|32|1 127,0,0,0,0,0,0,0,0,0,0,0,0,0,0,127,
scooby_state_91606d|31|1 127,0,0,0,0,0,0,0,0,0,0,0,0,0,0,127,
scooby_state_9160fb|28|1 127,0,0,0,0,0,0,0,0,0,0,0,0,0,0,127,
scooby_state_91606d|28|1 127,0,0,0,0,0,0,0,0,0,0,0,0,0,0,127,
scooby_state_916113|27|1 127,0,0,0,0,0,0,0,0,0,0,0,0,0,0,127,
scooby_state_916113|29|1 127,0,0,0,0,0,0,0,0,0,0,0,0,0,0,127,
scooby_state_916113|26|1 127,0,0,0,0,0,0,0,0,0,0,0,0,0,0,127,
scooby_state_9160fb|26|1 127,0,0,0,0,0,0,0,0,0,0,0,0,0,0,127,
scooby_state_91606d|26|1 127,0,0,0,0,0,0,0,0,0,0,0,0,0,0,127,
scooby_state_916113|22|1 127,0,0,0,0,0,0,0,0,0,0,0,0,0,0,127,
scooby_state_916113|20|1 127,0,0,0,0,0,0,0,0,0,0,0,0,0,0,127,
scooby_state_916113|19|1 127,0,0,0,0,0,0,0,0,0,0,0,0,0,0,127,
scooby_state_91606d|19|1 127,0,0,0,0,0,0,0,0,0,0,0,0,0,0,127,
scooby_state_91606d|18|1 126,0,0,0,0,0,0,0,1,0,0,0,0,0,0,127,
scooby_state_9160fb|29|1 127,0,0,0,0,0,0,0,0,0,0,0,0,0,0,127,
scooby_state_916113|23|1 127,0,0,0,0,0,0,0,0,0,0,0,0,0,0,127,
scooby_state_91606d|25|1 126,0,0,0,0,0,0,0,0,0,0,0,0,0,0,126,
scooby_state_916113|25|1 126,0,0,0,0,0,0,0,0,0,0,0,0,0,0,126,
scooby_state_9160fb|25|1 124,0,0,0,1,0,1,0,0,0,0,0,0,0,0,126,
scooby_state_916e7b|49|1 123,0,0,0,0,0,0,0,0,0,0,0,0,0,0,123,
scooby_state_916e7b|31|1 122,0,0,0,0,0,1,0,0,0,0,0,0,0,0,123,
scooby_state_916e7b|30|1 123,0,0,0,0,0,0,0,0,0,0,0,0,0,0,123,
scooby_state_916e7b|29|1 123,0,0,0,0,0,0,0,0,0,0,0,0,0,0,123,
scooby_state_916e7b|8|1 122,0,0,0,0,0,0,0,0,0,0,0,0,0,1,123,
scooby_state_916e7b|10|1 123,0,0,0,0,0,0,0,0,0,0,0,0,0,0,123,
scooby_state_916e7b|28|1 123,0,0,0,0,0,0,0,0,0,0,0,0,0,0,123,
scooby_state_916e7b|11|1 123,0,0,0,0,0,0,0,0,0,0,0,0,0,0,123,
scooby_state_916e7b|12|1 123,0,0,0,0,0,0,0,0,0,0,0,0,0,0,123,
scooby_state_916e7b|9|1 123,0,0,0,0,0,0,0,0,0,0,0,0,0,0,123,
scooby_state_916e7b|7|1 123,0,0,0,0,0,0,0,0,0,0,0,0,0,0,123,
scooby_state_916e7b|50|1 123,0,0,0,0,0,0,0,0,0,0,0,0,0,0,123,
scooby_state_916e7b|35|1 122,0,0,0,0,0,0,0,0,0,0,0,0,0,0,122,
scooby_state_916e7b|15|1 122,0,0,0,0,0,0,0,0,0,0,0,0,0,0,122,
scooby_state_916e7b|13|1 122,0,0,0,0,0,0,0,0,0,0,0,0,0,0,122,
scooby_state_916e7b|52|1 122,0,0,0,0,0,0,0,0,0,0,0,0,0,0,122,
scooby_state_916e7b|48|1 122,0,0,0,0,0,0,0,0,0,0,0,0,0,0,122,
scooby_state_916e7b|4|1 122,0,0,0,0,0,0,0,0,0,0,0,0,0,0,122,
scooby_state_916e7b|33|1 121,0,0,0,1,0,0,0,0,0,0,0,0,0,0,122,
scooby_state_916e7b|57|1 122,0,0,0,0,0,0,0,0,0,0,0,0,0,0,122,
scooby_state_916e7b|6|1 121,0,0,0,0,0,0,0,0,0,1,0,0,0,0,122,
scooby_state_916e7b|3|1 122,0,0,0,0,0,0,0,0,0,0,0,0,0,0,122,
scooby_state_916e7b|56|1 122,0,0,0,0,0,0,0,0,0,0,0,0,0,0,122,
scooby_state_916e7b|53|1 122,0,0,0,0,0,0,0,0,0,0,0,0,0,0,122,
scooby_state_916e7b|27|1 122,0,0,0,0,0,0,0,0,0,0,0,0,0,0,122,
scooby_state_916e7b|24|1 122,0,0,0,0,0,0,0,0,0,0,0,0,0,0,122,
scooby_state_916e7b|46|1 122,0,0,0,0,0,0,0,0,0,0,0,0,0,0,122,
scooby_state_916e7b|26|1 121,0,0,0,0,0,0,0,0,1,0,0,0,0,0,122,
scooby_state_916e7b|22|1 122,0,0,0,0,0,0,0,0,0,0,0,0,0,0,122,
scooby_state_916e7b|54|1 122,0,0,0,0,0,0,0,0,0,0,0,0,0,0,122,
scooby_state_916e7b|45|1 122,0,0,0,0,0,0,0,0,0,0,0,0,0,0,122,
scooby_state_916e7b|44|1 122,0,0,0,0,0,0,0,0,0,0,0,0,0,0,122,
scooby_state_916e7b|43|1 122,0,0,0,0,0,0,0,0,0,0,0,0,0,0,122,
scooby_state_916e7b|41|1 122,0,0,0,0,0,0,0,0,0,0,0,0,0,0,122,
scooby_state_916e7b|32|1 122,0,0,0,0,0,0,0,0,0,0,0,0,0,0,122,
scooby_state_916e7b|36|1 122,0,0,0,0,0,0,0,0,0,0,0,0,0,0,122,
scooby_state_916e7b|25|1 122,0,0,0,0,0,0,0,0,0,0,0,0,0,0,122,
scooby_state_916e7b|14|1 122,0,0,0,0,0,0,0,0,0,0,0,0,0,0,122,
scooby_state_916e7b|47|1 122,0,0,0,0,0,0,0,0,0,0,0,0,0,0,122,
scooby_state_916e7b|34|1 122,0,0,0,0,0,0,0,0,0,0,0,0,0,0,122,
scooby_state_916e7b|42|1 122,0,0,0,0,0,0,0,0,0,0,0,0,0,0,122,
scooby_state_916e7b|51|1 122,0,0,0,0,0,0,0,0,0,0,0,0,0,0,122,
scooby_state_916e7b|23|1 122,0,0,0,0,0,0,0,0,0,0,0,0,0,0,122,
scooby_state_916e7b|5|1 122,0,0,0,0,0,0,0,0,0,0,0,0,0,0,122,
scooby_state_916e7b|55|1 122,0,0,0,0,0,0,0,0,0,0,0,0,0,0,122,
scooby_state_916e7b|16|1 121,0,0,0,0,0,0,0,0,0,0,0,0,0,0,121,
scooby_state_916e7b|1|1 120,0,0,0,0,0,0,0,0,1,0,0,0,0,0,121,
scooby_state_916e7b|17|1 121,0,0,0,0,0,0,0,0,0,0,0,0,0,0,121,
scooby_state_916e7b|20|1 121,0,0,0,0,0,0,0,0,0,0,0,0,0,0,121,
scooby_state_916e7b|21|1 121,0,0,0,0,0,0,0,0,0,0,0,0,0,0,121,
scooby_state_916e7b|62|1 121,0,0,0,0,0,0,0,0,0,0,0,0,0,0,121,
scooby_state_916e7b|61|1 120,0,0,0,0,0,0,1,0,0,0,0,0,0,0,121,
scooby_state_916e7b|39|1 121,0,0,0,0,0,0,0,0,0,0,0,0,0,0,121,
scooby_state_916e7b|58|1 121,0,0,0,0,0,0,0,0,0,0,0,0,0,0,121,
scooby_state_916e7b|2|1 121,0,0,0,0,0,0,0,0,0,0,0,0,0,0,121,
scooby_state_916e7b|19|1 121,0,0,0,0,0,0,0,0,0,0,0,0,0,0,121,
scooby_state_916e7b|63|1 121,0,0,0,0,0,0,0,0,0,0,0,0,0,0,121,
scooby_state_916e7b|18|1 121,0,0,0,0,0,0,0,0,0,0,0,0,0,0,121,
scooby_state_916e7b|60|1 121,0,0,0,0,0,0,0,0,0,0,0,0,0,0,121,
scooby_state_916e7b|38|1 121,0,0,0,0,0,0,0,0,0,0,0,0,0,0,121,
scooby_state_916e7b|37|1 121,0,0,0,0,0,0,0,0,0,0,0,0,0,0,121,
scooby_state_916e7b|40|1 121,0,0,0,0,0,0,0,0,0,0,0,0,0,0,121,
scooby_state_916e60|15|1 119,0,0,0,0,0,0,0,0,0,0,0,0,0,1,120,
scooby_state_916e60|27|1 120,0,0,0,0,0,0,0,0,0,0,0,0,0,0,120,
scooby_state_916e7b|59|1 120,0,0,0,0,0,0,0,0,0,0,0,0,0,0,120,
scooby_state_916e60|17|1 119,0,0,0,0,0,0,0,0,0,0,0,0,0,0,119,
scooby_state_916e60|44|1 119,0,0,0,0,0,0,0,0,0,0,0,0,0,0,119,
scooby_state_916e60|29|1 119,0,0,0,0,0,0,0,0,0,0,0,0,0,0,119,
scooby_state_916e60|16|1 119,0,0,0,0,0,0,0,0,0,0,0,0,0,0,119,
scooby_state_916e60|28|1 119,0,0,0,0,0,0,0,0,0,0,0,0,0,0,119,
scooby_state_916e60|61|1 119,0,0,0,0,0,0,0,0,0,0,0,0,0,0,119,
scooby_state_916e60|26|1 118,0,0,0,0,0,0,0,0,0,1,0,0,0,0,119,
scooby_state_916e92|2|1 119,0,0,0,0,0,0,0,0,0,0,0,0,0,0,119,
scooby_state_916e92|1|1 118,0,0,0,0,0,0,0,0,0,0,0,0,0,0,118,
scooby_state_916e60|58|1 118,0,0,0,0,0,0,0,0,0,0,0,0,0,0,118,
scooby_state_916e60|24|1 117,0,0,0,0,0,0,0,0,0,0,1,0,0,0,118,
scooby_state_916e60|63|1 118,0,0,0,0,0,0,0,0,0,0,0,0,0,0,118,
scooby_state_916e60|18|1 118,0,0,0,0,0,0,0,0,0,0,0,0,0,0,118,
scooby_state_916e60|62|1 118,0,0,0,0,0,0,0,0,0,0,0,0,0,0,118,
scooby_state_916e60|25|1 118,0,0,0,0,0,0,0,0,0,0,0,0,0,0,118,
scooby_state_916e60|60|1 118,0,0,0,0,0,0,0,0,0,0,0,0,0,0,118,
scooby_state_916e60|23|1 118,0,0,0,0,0,0,0,0,0,0,0,0,0,0,118,
scooby_state_916e60|7|1 118,0,0,0,0,0,0,0,0,0,0,0,0,0,0,118,
scooby_state_916e60|42|1 118,0,0,0,0,0,0,0,0,0,0,0,0,0,0,118,
scooby_state_916e60|43|1 118,0,0,0,0,0,0,0,0,0,0,0,0,0,0,118,
scooby_state_916e60|59|1 118,0,0,0,0,0,0,0,0,0,0,0,0,0,0,118,
scooby_state_916e60|34|1 118,0,0,0,0,0,0,0,0,0,0,0,0,0,0,118,
scooby_state_916e60|36|1 117,0,0,0,0,0,0,0,1,0,0,0,0,0,0,118,
scooby_state_916e60|14|1 118,0,0,0,0,0,0,0,0,0,0,0,0,0,0,118,
scooby_state_916e60|37|1 118,0,0,0,0,0,0,0,0,0,0,0,0,0,0,118,
scooby_state_916e60|55|1 117,0,0,0,0,0,0,0,0,0,0,0,0,0,0,117,
scooby_state_916e60|53|1 117,0,0,0,0,0,0,0,0,0,0,0,0,0,0,117,
scooby_state_916e60|49|1 116,0,0,0,0,0,1,0,0,0,0,0,0,0,0,117,
scooby_state_916e60|5|1 117,0,0,0,0,0,0,0,0,0,0,0,0,0,0,117,
scooby_state_916e60|1|1 117,0,0,0,0,0,0,0,0,0,0,0,0,0,0,117,
scooby_state_916e60|31|1 117,0,0,0,0,0,0,0,0,0,0,0,0,0,0,117,
scooby_state_916e60|8|1 117,0,0,0,0,0,0,0,0,0,0,0,0,0,0,117,
scooby_state_916e60|32|1 117,0,0,0,0,0,0,0,0,0,0,0,0,0,0,117,
scooby_state_916e60|33|1 117,0,0,0,0,0,0,0,0,0,0,0,0,0,0,117,
scooby_state_916e60|39|1 116,0,0,0,0,0,0,1,0,0,0,0,0,0,0,117,
scooby_state_916e60|40|1 117,0,0,0,0,0,0,0,0,0,0,0,0,0,0,117,
scooby_state_916e60|30|1 117,0,0,0,0,0,0,0,0,0,0,0,0,0,0,117,
scooby_state_916e60|4|1 117,0,0,0,0,0,0,0,0,0,0,0,0,0,0,117,
scooby_state_916e60|21|1 117,0,0,0,0,0,0,0,0,0,0,0,0,0,0,117,
scooby_state_916e60|6|1 117,0,0,0,0,0,0,0,0,0,0,0,0,0,0,117,
scooby_state_916e92|5|1 117,0,0,0,0,0,0,0,0,0,0,0,0,0,0,117,
scooby_state_916e60|38|1 117,0,0,0,0,0,0,0,0,0,0,0,0,0,0,117,
scooby_state_916e60|12|1 117,0,0,0,0,0,0,0,0,0,0,0,0,0,0,117,
scooby_state_916e60|2|1 117,0,0,0,0,0,0,0,0,0,0,0,0,0,0,117,
scooby_state_916e60|41|1 117,0,0,0,0,0,0,0,0,0,0,0,0,0,0,117,
scooby_state_916e60|56|1 117,0,0,0,0,0,0,0,0,0,0,0,0,0,0,117,
scooby_state_916e60|35|1 116,0,1,0,0,0,0,0,0,0,0,0,0,0,0,117,
scooby_state_916e60|54|1 117,0,0,0,0,0,0,0,0,0,0,0,0,0,0,117,
scooby_state_916e60|51|1 117,0,0,0,0,0,0,0,0,0,0,0,0,0,0,117,
scooby_state_916e60|19|1 117,0,0,0,0,0,0,0,0,0,0,0,0,0,0,117,
scooby_state_916e60|20|1 117,0,0,0,0,0,0,0,0,0,0,0,0,0,0,117,
scooby_state_916e60|13|1 117,0,0,0,0,0,0,0,0,0,0,0,0,0,0,117,
scooby_state_916e60|50|1 117,0,0,0,0,0,0,0,0,0,0,0,0,0,0,117,
scooby_state_916e60|22|1 117,0,0,0,0,0,0,0,0,0,0,0,0,0,0,117,
scooby_state_916e60|11|1 117,0,0,0,0,0,0,0,0,0,0,0,0,0,0,117,
scooby_state_916e92|3|1 117,0,0,0,0,0,0,0,0,0,0,0,0,0,0,117,
scooby_state_916e92|4|1 116,0,0,0,0,0,0,1,0,0,0,0,0,0,0,117,
scooby_state_916e60|45|1 117,0,0,0,0,0,0,0,0,0,0,0,0,0,0,117,
scooby_state_916e60|10|1 117,0,0,0,0,0,0,0,0,0,0,0,0,0,0,117,
scooby_state_916e60|9|1 117,0,0,0,0,0,0,0,0,0,0,0,0,0,0,117,
scooby_state_916e60|52|1 117,0,0,0,0,0,0,0,0,0,0,0,0,0,0,117,
scooby_state_916e60|57|1 117,0,0,0,0,0,0,0,0,0,0,0,0,0,0,117,
scooby_state_916e60|47|1 116,0,0,0,0,0,0,0,0,0,0,0,0,0,0,116,
scooby_state_916e60|46|1 116,0,0,0,0,0,0,0,0,0,0,0,0,0,0,116,
scooby_state_916e60|3|1 116,0,0,0,0,0,0,0,0,0,0,0,0,0,0,116,
scooby_state_916e60|48|1 116,0,0,0,0,0,0,0,0,0,0,0,0,0,0,116,
scooby_state_916e92|46|1 114,0,0,0,0,0,0,0,0,0,0,0,0,0,0,114,
scooby_state_916e92|21|1 114,0,0,0,0,0,0,0,0,0,0,0,0,0,0,114,
scooby_state_916e92|37|1 114,0,0,0,0,0,0,0,0,0,0,0,0,0,0,114,
scooby_state_916e92|22|1 114,0,0,0,0,0,0,0,0,0,0,0,0,0,0,114,
scooby_state_916e92|47|1 114,0,0,0,0,0,0,0,0,0,0,0,0,0,0,114,
scooby_state_916e92|29|1 113,0,0,0,0,0,0,0,0,0,0,0,0,0,0,113,
scooby_state_916e92|30|1 113,0,0,0,0,0,0,0,0,0,0,0,0,0,0,113,
scooby_state_916e92|23|1 112,0,0,0,1,0,0,0,0,0,0,0,0,0,0,113,
scooby_state_916e92|27|1 112,0,0,0,0,0,0,1,0,0,0,0,0,0,0,113,
scooby_state_916e92|55|1 112,0,0,0,0,0,0,0,0,0,0,1,0,0,0,113,
scooby_state_916e92|63|1 112,1,0,0,0,0,0,0,0,0,0,0,0,0,0,113,
scooby_state_916e92|10|1 113,0,0,0,0,0,0,0,0,0,0,0,0,0,0,113,
scooby_state_916e92|42|1 113,0,0,0,0,0,0,0,0,0,0,0,0,0,0,113,
scooby_state_916e92|56|1 113,0,0,0,0,0,0,0,0,0,0,0,0,0,0,113,
scooby_state_916e92|45|1 113,0,0,0,0,0,0,0,0,0,0,0,0,0,0,113,
scooby_state_916e92|9|1 113,0,0,0,0,0,0,0,0,0,0,0,0,0,0,113,
scooby_state_916e92|53|1 113,0,0,0,0,0,0,0,0,0,0,0,0,0,0,113,
scooby_state_916e92|54|1 113,0,0,0,0,0,0,0,0,0,0,0,0,0,0,113,
scooby_state_916e92|20|1 113,0,0,0,0,0,0,0,0,0,0,0,0,0,0,113,
scooby_state_916e92|58|1 113,0,0,0,0,0,0,0,0,0,0,0,0,0,0,113,
scooby_state_916e92|60|1 113,0,0,0,0,0,0,0,0,0,0,0,0,0,0,113,
scooby_state_916e92|6|1 113,0,0,0,0,0,0,0,0,0,0,0,0,0,0,113,
scooby_state_916e92|11|1 113,0,0,0,0,0,0,0,0,0,0,0,0,0,0,113,
scooby_state_916e92|39|1 113,0,0,0,0,0,0,0,0,0,0,0,0,0,0,113,
scooby_state_916e92|18|1 113,0,0,0,0,0,0,0,0,0,0,0,0,0,0,113,
scooby_state_916e92|19|1 113,0,0,0,0,0,0,0,0,0,0,0,0,0,0,113,
scooby_state_916e92|28|1 113,0,0,0,0,0,0,0,0,0,0,0,0,0,0,113,
scooby_state_916e92|33|1 113,0,0,0,0,0,0,0,0,0,0,0,0,0,0,113,
scooby_state_916e92|59|1 113,0,0,0,0,0,0,0,0,0,0,0,0,0,0,113,
scooby_state_916e92|44|1 113,0,0,0,0,0,0,0,0,0,0,0,0,0,0,113,
scooby_state_916e92|15|1 113,0,0,0,0,0,0,0,0,0,0,0,0,0,0,113,
scooby_state_916e92|61|1 113,0,0,0,0,0,0,0,0,0,0,0,0,0,0,113,
scooby_state_916e92|41|1 112,0,0,0,1,0,0,0,0,0,0,0,0,0,0,113,
scooby_state_916e92|48|1 113,0,0,0,0,0,0,0,0,0,0,0,0,0,0,113,
scooby_state_916e92|16|1 113,0,0,0,0,0,0,0,0,0,0,0,0,0,0,113,
scooby_state_916e92|38|1 112,0,0,0,0,0,0,0,0,0,0,0,0,1,0,113,
scooby_state_916e92|40|1 113,0,0,0,0,0,0,0,0,0,0,0,0,0,0,113,
scooby_state_916e92|36|1 113,0,0,0,0,0,0,0,0,0,0,0,0,0,0,113,
scooby_state_916e92|7|1 111,1,0,0,0,0,0,0,0,0,0,0,0,0,0,112,
scooby_state_916e92|12|1 112,0,0,0,0,0,0,0,0,0,0,0,0,0,0,112,
scooby_state_916e92|62|1 112,0,0,0,0,0,0,0,0,0,0,0,0,0,0,112,
scooby_state_916e92|35|1 112,0,0,0,0,0,0,0,0,0,0,0,0,0,0,112,
scooby_state_916e92|13|1 112,0,0,0,0,0,0,0,0,0,0,0,0,0,0,112,
scooby_state_916e92|8|1 112,0,0,0,0,0,0,0,0,0,0,0,0,0,0,112,
scooby_state_916e92|52|1 112,0,0,0,0,0,0,0,0,0,0,0,0,0,0,112,
scooby_state_916e92|51|1 112,0,0,0,0,0,0,0,0,0,0,0,0,0,0,112,
scooby_state_916e92|50|1 112,0,0,0,0,0,0,0,0,0,0,0,0,0,0,112,
scooby_state_916e92|49|1 112,0,0,0,0,0,0,0,0,0,0,0,0,0,0,112,
scooby_state_916e92|31|1 112,0,0,0,0,0,0,0,0,0,0,0,0,0,0,112,
scooby_state_916e92|43|1 112,0,0,0,0,0,0,0,0,0,0,0,0,0,0,112,
scooby_state_916e92|34|1 112,0,0,0,0,0,0,0,0,0,0,0,0,0,0,112,
scooby_state_916e92|57|1 112,0,0,0,0,0,0,0,0,0,0,0,0,0,0,112,
scooby_state_916e92|32|1 112,0,0,0,0,0,0,0,0,0,0,0,0,0,0,112,
scooby_state_916e92|17|1 112,0,0,0,0,0,0,0,0,0,0,0,0,0,0,112,
scooby_state_916e92|25|1 112,0,0,0,0,0,0,0,0,0,0,0,0,0,0,112,
scooby_state_916e92|24|1 111,0,1,0,0,0,0,0,0,0,0,0,0,0,0,112,
scooby_state_916e92|14|1 112,0,0,0,0,0,0,0,0,0,0,0,0,0,0,112,
scooby_state_916e92|26|1 112,0,0,0,0,0,0,0,0,0,0,0,0,0,0,112,
scooby_state_90b50d|56|1 78,0,0,0,0,0,0,0,0,0,0,0,0,0,0,78,
scooby_state_90b50d|38|1 78,0,0,0,0,0,0,0,0,0,0,0,0,0,0,78,
scooby_state_90b50d|26|1 78,0,0,0,0,0,0,0,0,0,0,0,0,0,0,78,
scooby_state_90b50d|7|1 77,0,0,0,0,0,0,0,0,0,0,0,1,0,0,78,
scooby_state_90b50d|30|1 78,0,0,0,0,0,0,0,0,0,0,0,0,0,0,78,
scooby_state_90b50d|11|1 78,0,0,0,0,0,0,0,0,0,0,0,0,0,0,78,
scooby_state_90b50d|52|1 78,0,0,0,0,0,0,0,0,0,0,0,0,0,0,78,
scooby_state_90b50d|33|1 76,0,0,0,0,0,0,0,0,1,0,0,0,0,1,78,
scooby_state_90b50d|54|1 78,0,0,0,0,0,0,0,0,0,0,0,0,0,0,78,
scooby_state_90b50d|37|1 78,0,0,0,0,0,0,0,0,0,0,0,0,0,0,78,
scooby_state_90b50d|28|1 78,0,0,0,0,0,0,0,0,0,0,0,0,0,0,78,
scooby_state_90b50d|9|1 78,0,0,0,0,0,0,0,0,0,0,0,0,0,0,78,
scooby_state_90b50d|35|1 78,0,0,0,0,0,0,0,0,0,0,0,0,0,0,78,
scooby_state_90b50d|10|1 77,0,0,0,0,0,0,0,0,0,0,0,0,0,0,77,
scooby_state_90b50d|14|1 77,0,0,0,0,0,0,0,0,0,0,0,0,0,0,77,
scooby_state_90b50d|34|1 77,0,0,0,0,0,0,0,0,0,0,0,0,0,0,77,
scooby_state_90b50d|16|1 77,0,0,0,0,0,0,0,0,0,0,0,0,0,0,77,
scooby_state_90b50d|21|1 77,0,0,0,0,0,0,0,0,0,0,0,0,0,0,77,
scooby_state_90b50d|8|1 77,0,0,0,0,0,0,0,0,0,0,0,0,0,0,77,
scooby_state_90b50d|6|1 77,0,0,0,0,0,0,0,0,0,0,0,0,0,0,77,
scooby_state_90b50d|31|1 77,0,0,0,0,0,0,0,0,0,0,0,0,0,0,77,
scooby_state_90b50d|32|1 76,0,0,0,0,1,0,0,0,0,0,0,0,0,0,77,
scooby_state_90b50d|27|1 77,0,0,0,0,0,0,0,0,0,0,0,0,0,0,77,
scooby_state_90b50d|29|1 77,0,0,0,0,0,0,0,0,0,0,0,0,0,0,77,
scooby_state_90b50d|61|1 77,0,0,0,0,0,0,0,0,0,0,0,0,0,0,77,
scooby_state_90b50d|40|1 77,0,0,0,0,0,0,0,0,0,0,0,0,0,0,77,
scooby_state_90b50d|0|0 77,0,0,0,0,0,0,0,0,0,0,0,0,0,0,77,
scooby_state_90b50d|4|1 77,0,0,0,0,0,0,0,0,0,0,0,0,0,0,77,
scooby_state_90b50d|25|1 77,0,0,0,0,0,0,0,0,0,0,0,0,0,0,77,
scooby_state_90b50d|51|1 77,0,0,0,0,0,0,0,0,0,0,0,0,0,0,77,
scooby_state_90b50d|53|1 77,0,0,0,0,0,0,0,0,0,0,0,0,0,0,77,
scooby_state_90b50d|42|1 77,0,0,0,0,0,0,0,0,0,0,0,0,0,0,77,
scooby_state_90b50d|36|1 76,0,0,0,1,0,0,0,0,0,0,0,0,0,0,77,
scooby_state_90b50d|49|1 77,0,0,0,0,0,0,0,0,0,0,0,0,0,0,77,
scooby_state_90b50d|19|1 76,0,0,0,1,0,0,0,0,0,0,0,0,0,0,77,
scooby_state_90b50d|55|1 76,0,0,0,0,0,0,0,0,0,0,0,0,0,1,77,
scooby_state_90b50d|57|1 77,0,0,0,0,0,0,0,0,0,0,0,0,0,0,77,
scooby_state_90b50d|18|1 77,0,0,0,0,0,0,0,0,0,0,0,0,0,0,77,
scooby_state_90b50d|47|1 77,0,0,0,0,0,0,0,0,0,0,0,0,0,0,77,
scooby_state_90b50d|59|1 77,0,0,0,0,0,0,0,0,0,0,0,0,0,0,77,
scooby_state_90b50d|63|1 77,0,0,0,0,0,0,0,0,0,0,0,0,0,0,77,
scooby_state_90b50d|23|1 77,0,0,0,0,0,0,0,0,0,0,0,0,0,0,77,
scooby_state_90b50d|2|1 77,0,0,0,0,0,0,0,0,0,0,0,0,0,0,77,
scooby_state_90b50d|12|1 77,0,0,0,0,0,0,0,0,0,0,0,0,0,0,77,
scooby_state_90b50d|44|1 77,0,0,0,0,0,0,0,0,0,0,0,0,0,0,77,
scooby_state_90b50d|45|1 77,0,0,0,0,0,0,0,0,0,0,0,0,0,0,77,
scooby_state_90b50d|46|1 76,0,0,0,0,0,0,0,0,0,0,0,0,0,0,76,
scooby_state_90b50d|20|1 76,0,0,0,0,0,0,0,0,0,0,0,0,0,0,76,
scooby_state_90b50d|15|1 76,0,0,0,0,0,0,0,0,0,0,0,0,0,0,76,
scooby_state_90b50d|43|1 76,0,0,0,0,0,0,0,0,0,0,0,0,0,0,76,
scooby_state_90b50d|5|1 76,0,0,0,0,0,0,0,0,0,0,0,0,0,0,76,
scooby_state_90b50d|39|1 76,0,0,0,0,0,0,0,0,0,0,0,0,0,0,76,
scooby_state_90b50d|24|1 76,0,0,0,0,0,0,0,0,0,0,0,0,0,0,76,
scooby_state_90b50d|41|1 76,0,0,0,0,0,0,0,0,0,0,0,0,0,0,76,
scooby_state_90b50d|22|1 76,0,0,0,0,0,0,0,0,0,0,0,0,0,0,76,
scooby_state_90b50d|13|1 76,0,0,0,0,0,0,0,0,0,0,0,0,0,0,76,
scooby_state_90b50d|3|1 76,0,0,0,0,0,0,0,0,0,0,0,0,0,0,76,
scooby_state_90b50d|62|1 76,0,0,0,0,0,0,0,0,0,0,0,0,0,0,76,
scooby_state_90b50d|50|1 76,0,0,0,0,0,0,0,0,0,0,0,0,0,0,76,
scooby_state_90b50d|1|1 76,0,0,0,0,0,0,0,0,0,0,0,0,0,0,76,
scooby_state_90b50d|60|1 76,0,0,0,0,0,0,0,0,0,0,0,0,0,0,76,
scooby_state_90b50d|17|1 75,0,0,0,0,0,0,0,0,0,0,0,0,0,1,76,
scooby_state_90b50d|48|1 75,0,0,0,0,0,0,0,0,0,0,0,1,0,0,76,
scooby_state_90b50d|58|1 75,0,0,0,0,0,0,0,0,0,0,1,0,0,0,76,
scooby_state_916e7b|0|0 66,0,0,0,0,0,0,0,0,0,0,0,0,0,0,66,
scooby_state_916e92|0|0 61,0,0,0,0,0,0,0,0,0,0,0,0,0,1,62,
scooby_state_916e60|0|0 61,0,0,0,0,0,0,0,0,0,0,0,0,0,0,61,
scooby_state_90b5de|16|1 58,0,0,0,0,0,0,0,0,0,0,0,0,0,0,58,
scooby_state_90b5de|33|1 57,0,0,0,0,0,0,0,0,0,0,0,0,0,0,57,
scooby_state_90b5de|2|1 56,0,0,0,0,0,0,0,0,0,0,0,0,0,0,56,
scooby_state_90b5de|5|1 55,0,0,0,0,0,0,0,0,0,0,0,0,0,0,55,
scooby_state_90b5de|19|1 54,0,0,0,0,0,0,0,0,0,0,0,0,0,0,54,
scooby_state_90b5de|63|1 54,0,0,0,0,0,0,0,0,0,0,0,0,0,0,54,
scooby_state_90b5de|35|1 53,0,0,0,0,0,0,0,0,0,0,0,0,0,0,53,
scooby_state_90b5de|0|0 53,0,0,0,0,0,0,0,0,0,0,0,0,0,0,53,
scooby_state_90b5de|22|1 53,0,0,0,0,0,0,0,0,0,0,0,0,0,0,53,
scooby_state_90b5de|15|1 53,0,0,0,0,0,0,0,0,0,0,0,0,0,0,53,
scooby_state_90b5de|49|1 53,0,0,0,0,0,0,0,0,0,0,0,0,0,0,53,
scooby_state_90b5de|58|1 53,0,0,0,0,0,0,0,0,0,0,0,0,0,0,53,
scooby_state_90b5de|50|1 53,0,0,0,0,0,0,0,0,0,0,0,0,0,0,53,
scooby_state_90b5de|9|1 53,0,0,0,0,0,0,0,0,0,0,0,0,0,0,53,
scooby_state_90b5de|40|1 52,0,0,0,0,0,0,0,0,0,0,0,0,0,0,52,
scooby_state_91a81d|53|1 52,0,0,0,0,0,0,0,0,0,0,0,0,0,0,52,
scooby_state_91a869|55|1 52,0,0,0,0,0,0,0,0,0,0,0,0,0,0,52,
scooby_state_91a81d|8|1 52,0,0,0,0,0,0,0,0,0,0,0,0,0,0,52,
scooby_state_90b5de|52|1 52,0,0,0,0,0,0,0,0,0,0,0,0,0,0,52,
scooby_state_91a8b6|34|1 52,0,0,0,0,0,0,0,0,0,0,0,0,0,0,52,
scooby_state_91a841|53|1 52,0,0,0,0,0,0,0,0,0,0,0,0,0,0,52,
scooby_state_91a8b6|53|1 52,0,0,0,0,0,0,0,0,0,0,0,0,0,0,52,
scooby_state_91a81d|36|1 51,0,0,0,0,0,0,0,0,1,0,0,0,0,0,52,
scooby_state_90b5de|27|1 51,0,0,0,0,0,0,0,0,0,1,0,0,0,0,52,
scooby_state_91a8b6|8|1 52,0,0,0,0,0,0,0,0,0,0,0,0,0,0,52,
scooby_state_90b5de|23|1 52,0,0,0,0,0,0,0,0,0,0,0,0,0,0,52,
scooby_state_91a841|55|1 52,0,0,0,0,0,0,0,0,0,0,0,0,0,0,52,
scooby_state_91a841|8|1 52,0,0,0,0,0,0,0,0,0,0,0,0,0,0,52,
scooby_state_90b571|48|1 52,0,0,0,0,0,0,0,0,0,0,0,0,0,0,52,
scooby_state_91a8b6|10|1 52,0,0,0,0,0,0,0,0,0,0,0,0,0,0,52,
scooby_state_91a8b6|55|1 52,0,0,0,0,0,0,0,0,0,0,0,0,0,0,52,
scooby_state_91a81d|55|1 52,0,0,0,0,0,0,0,0,0,0,0,0,0,0,52,
scooby_state_90b5de|13|1 52,0,0,0,0,0,0,0,0,0,0,0,0,0,0,52,
scooby_state_91a84e|55|1 52,0,0,0,0,0,0,0,0,0,0,0,0,0,0,52,
scooby_state_91a8b6|36|1 52,0,0,0,0,0,0,0,0,0,0,0,0,0,0,52,
scooby_state_91a81d|34|1 52,0,0,0,0,0,0,0,0,0,0,0,0,0,0,52,
scooby_state_91a841|36|1 52,0,0,0,0,0,0,0,0,0,0,0,0,0,0,52,
scooby_state_91a841|33|1 52,0,0,0,0,0,0,0,0,0,0,0,0,0,0,52,
scooby_state_91a8b6|17|1 52,0,0,0,0,0,0,0,0,0,0,0,0,0,0,52,
scooby_state_91a8bb|29|1 51,0,0,0,0,0,0,0,0,0,0,0,0,0,0,51,
scooby_state_91a81d|7|1 51,0,0,0,0,0,0,0,0,0,0,0,0,0,0,51,
scooby_state_91a81d|41|1 51,0,0,0,0,0,0,0,0,0,0,0,0,0,0,51,
scooby_state_91a841|5|1 51,0,0,0,0,0,0,0,0,0,0,0,0,0,0,51,
scooby_state_90b5de|12|1 51,0,0,0,0,0,0,0,0,0,0,0,0,0,0,51,
scooby_state_91a81d|48|1 51,0,0,0,0,0,0,0,0,0,0,0,0,0,0,51,
scooby_state_91a84e|48|1 51,0,0,0,0,0,0,0,0,0,0,0,0,0,0,51,
scooby_state_91a8b6|19|1 51,0,0,0,0,0,0,0,0,0,0,0,0,0,0,51,
scooby_state_91a81d|11|1 51,0,0,0,0,0,0,0,0,0,0,0,0,0,0,51,
scooby_state_91a8bb|28|1 51,0,0,0,0,0,0,0,0,0,0,0,0,0,0,51,
scooby_state_91a8b6|62|1 51,0,0,0,0,0,0,0,0,0,0,0,0,0,0,51,
scooby_state_91a8b6|41|1 51,0,0,0,0,0,0,0,0,0,0,0,0,0,0,51,
scooby_state_91a8b6|58|1 51,0,0,0,0,0,0,0,0,0,0,0,0,0,0,51,
scooby_state_91a84e|53|1 51,0,0,0,0,0,0,0,0,0,0,0,0,0,0,51,
scooby_state_91a8bb|22|1 51,0,0,0,0,0,0,0,0,0,0,0,0,0,0,51,
scooby_state_91a81d|1|1 50,0,0,0,0,0,0,1,0,0,0,0,0,0,0,51,
scooby_state_91a8bb|46|1 51,0,0,0,0,0,0,0,0,0,0,0,0,0,0,51,
scooby_state_91a8b6|15|1 51,0,0,0,0,0,0,0,0,0,0,0,0,0,0,51,
scooby_state_91a8b6|50|1 51,0,0,0,0,0,0,0,0,0,0,0,0,0,0,51,
scooby_state_91a8b6|9|1 51,0,0,0,0,0,0,0,0,0,0,0,0,0,0,51,
scooby_state_91a81d|60|1 51,0,0,0,0,0,0,0,0,0,0,0,0,0,0,51,
scooby_state_91a81d|56|1 51,0,0,0,0,0,0,0,0,0,0,0,0,0,0,51,
scooby_state_91a841|58|1 51,0,0,0,0,0,0,0,0,0,0,0,0,0,0,51,
scooby_state_91a8b6|48|1 51,0,0,0,0,0,0,0,0,0,0,0,0,0,0,51,
scooby_state_91a8b6|39|1 51,0,0,0,0,0,0,0,0,0,0,0,0,0,0,51,
scooby_state_91a8bb|61|1 51,0,0,0,0,0,0,0,0,0,0,0,0,0,0,51,
scooby_state_91a8b6|11|1 51,0,0,0,0,0,0,0,0,0,0,0,0,0,0,51,
scooby_state_91a8b6|51|1 51,0,0,0,0,0,0,0,0,0,0,0,0,0,0,51,
scooby_state_91a81d|9|1 51,0,0,0,0,0,0,0,0,0,0,0,0,0,0,51,
scooby_state_91a869|48|1 51,0,0,0,0,0,0,0,0,0,0,0,0,0,0,51,
scooby_state_91a8bb|19|1 51,0,0,0,0,0,0,0,0,0,0,0,0,0,0,51,
scooby_state_91a8b6|3|1 51,0,0,0,0,0,0,0,0,0,0,0,0,0,0,51,
scooby_state_91a8b6|18|1 51,0,0,0,0,0,0,0,0,0,0,0,0,0,0,51,
scooby_state_91a8bb|49|1 51,0,0,0,0,0,0,0,0,0,0,0,0,0,0,51,
scooby_state_91a8b6|60|1 51,0,0,0,0,0,0,0,0,0,0,0,0,0,0,51,
scooby_state_91a84e|11|1 51,0,0,0,0,0,0,0,0,0,0,0,0,0,0,51,
scooby_state_91a841|1|1 51,0,0,0,0,0,0,0,0,0,0,0,0,0,0,51,
scooby_state_91a8b6|22|1 51,0,0,0,0,0,0,0,0,0,0,0,0,0,0,51,
scooby_state_91a8b6|20|1 51,0,0,0,0,0,0,0,0,0,0,0,0,0,0,51,
scooby_state_91a8bb|1|1 51,0,0,0,0,0,0,0,0,0,0,0,0,0,0,51,
scooby_state_91a8bb|30|1 51,0,0,0,0,0,0,0,0,0,0,0,0,0,0,51,
scooby_state_91a841|46|1 51,0,0,0,0,0,0,0,0,0,0,0,0,0,0,51,
scooby_state_91a8bb|23|1 51,0,0,0,0,0,0,0,0,0,0,0,0,0,0,51,
scooby_state_91a8b6|0|0 51,0,0,0,0,0,0,0,0,0,0,0,0,0,0,51,
scooby_state_91a8b6|16|1 51,0,0,0,0,0,0,0,0,0,0,0,0,0,0,51,
scooby_state_91a8bb|0|0 51,0,0,0,0,0,0,0,0,0,0,0,0,0,0,51,
scooby_state_91a81d|58|1 51,0,0,0,0,0,0,0,0,0,0,0,0,0,0,51,
scooby_state_91a8b6|1|1 51,0,0,0,0,0,0,0,0,0,0,0,0,0,0,51,
scooby_state_91a869|5|1 50,0,0,1,0,0,0,0,0,0,0,0,0,0,0,51,
scooby_state_91a841|41|1 51,0,0,0,0,0,0,0,0,0,0,0,0,0,0,51,
scooby_state_91a8b6|6|1 51,0,0,0,0,0,0,0,0,0,0,0,0,0,0,51,
scooby_state_91a81d|17|1 51,0,0,0,0,0,0,0,0,0,0,0,0,0,0,51,
scooby_state_91a841|56|1 51,0,0,0,0,0,0,0,0,0,0,0,0,0,0,51,
scooby_state_91a869|27|1 50,0,0,0,0,1,0,0,0,0,0,0,0,0,0,51,
scooby_state_91a8b6|29|1 51,0,0,0,0,0,0,0,0,0,0,0,0,0,0,51,
scooby_state_91a8bb|45|1 51,0,0,0,0,0,0,0,0,0,0,0,0,0,0,51,
scooby_state_91a8b6|37|1 50,0,1,0,0,0,0,0,0,0,0,0,0,0,0,51,
scooby_state_91a8bb|17|1 51,0,0,0,0,0,0,0,0,0,0,0,0,0,0,51,
scooby_state_91a8bb|44|1 50,0,0,0,0,0,0,0,1,0,0,0,0,0,0,51,
scooby_state_90b5de|30|1 51,0,0,0,0,0,0,0,0,0,0,0,0,0,0,51,
scooby_state_91a8b6|7|1 51,0,0,0,0,0,0,0,0,0,0,0,0,0,0,51,
scooby_state_91a841|38|1 51,0,0,0,0,0,0,0,0,0,0,0,0,0,0,51,
scooby_state_91a8bb|2|1 51,0,0,0,0,0,0,0,0,0,0,0,0,0,0,51,
scooby_state_91a81d|35|1 51,0,0,0,0,0,0,0,0,0,0,0,0,0,0,51,
scooby_state_91a84e|36|1 51,0,0,0,0,0,0,0,0,0,0,0,0,0,0,51,
scooby_state_91a8bb|43|1 51,0,0,0,0,0,0,0,0,0,0,0,0,0,0,51,
scooby_state_91a841|48|1 51,0,0,0,0,0,0,0,0,0,0,0,0,0,0,51,
scooby_state_91a8b6|24|1 51,0,0,0,0,0,0,0,0,0,0,0,0,0,0,51,
scooby_state_91a8b6|56|1 51,0,0,0,0,0,0,0,0,0,0,0,0,0,0,51,
scooby_state_91a81d|5|1 51,0,0,0,0,0,0,0,0,0,0,0,0,0,0,51,
scooby_state_91a81d|38|1 51,0,0,0,0,0,0,0,0,0,0,0,0,0,0,51,
scooby_state_91a8bb|27|1 51,0,0,0,0,0,0,0,0,0,0,0,0,0,0,51,
scooby_state_91a8b6|43|1 51,0,0,0,0,0,0,0,0,0,0,0,0,0,0,51,
scooby_state_91a8b6|33|1 51,0,0,0,0,0,0,0,0,0,0,0,0,0,0,51,
scooby_state_91a8bb|20|1 51,0,0,0,0,0,0,0,0,0,0,0,0,0,0,51,
scooby_state_90b5de|37|1 51,0,0,0,0,0,0,0,0,0,0,0,0,0,0,51,
scooby_state_91a81d|12|1 51,0,0,0,0,0,0,0,0,0,0,0,0,0,0,51,
scooby_state_91a8b6|31|1 51,0,0,0,0,0,0,0,0,0,0,0,0,0,0,51,
scooby_state_90b5de|3|1 51,0,0,0,0,0,0,0,0,0,0,0,0,0,0,51,
scooby_state_91a841|10|1 51,0,0,0,0,0,0,0,0,0,0,0,0,0,0,51,
scooby_state_91a8b6|32|1 50,0,0,0,0,0,0,0,0,0,0,0,0,0,1,51,
scooby_state_90b5de|11|1 51,0,0,0,0,0,0,0,0,0,0,0,0,0,0,51,
scooby_state_91a8bb|16|1 51,0,0,0,0,0,0,0,0,0,0,0,0,0,0,51,
scooby_state_91a84e|5|1 51,0,0,0,0,0,0,0,0,0,0,0,0,0,0,51,
scooby_state_90b5de|47|1 51,0,0,0,0,0,0,0,0,0,0,0,0,0,0,51,
scooby_state_91a8b6|57|1 51,0,0,0,0,0,0,0,0,0,0,0,0,0,0,51,
scooby_state_91a8b6|54|1 51,0,0,0,0,0,0,0,0,0,0,0,0,0,0,51,
scooby_state_91a8bb|48|1 50,0,0,1,0,0,0,0,0,0,0,0,0,0,0,51,
scooby_state_91a81d|39|1 51,0,0,0,0,0,0,0,0,0,0,0,0,0,0,51,
scooby_state_91a81d|51|1 51,0,0,0,0,0,0,0,0,0,0,0,0,0,0,51,
scooby_state_91a841|0|0 51,0,0,0,0,0,0,0,0,0,0,0,0,0,0,51,
scooby_state_91a841|19|1 51,0,0,0,0,0,0,0,0,0,0,0,0,0,0,51,
scooby_state_91a81d|19|1 51,0,0,0,0,0,0,0,0,0,0,0,0,0,0,51,
scooby_state_91a8b6|38|1 51,0,0,0,0,0,0,0,0,0,0,0,0,0,0,51,
scooby_state_91a8b6|35|1 51,0,0,0,0,0,0,0,0,0,0,0,0,0,0,51,
scooby_state_91a8bb|62|1 51,0,0,0,0,0,0,0,0,0,0,0,0,0,0,51,
scooby_state_91a8b6|13|1 51,0,0,0,0,0,0,0,0,0,0,0,0,0,0,51,
scooby_state_91a84e|34|1 51,0,0,0,0,0,0,0,0,0,0,0,0,0,0,51,
scooby_state_91a8bb|18|1 51,0,0,0,0,0,0,0,0,0,0,0,0,0,0,51,
scooby_state_91a81d|0|0 51,0,0,0,0,0,0,0,0,0,0,0,0,0,0,51,
scooby_state_91a8bb|4|1 50,0,0,0,0,0,0,0,0,0,0,0,1,0,0,51,
scooby_state_91a869|34|1 51,0,0,0,0,0,0,0,0,0,0,0,0,0,0,51,
scooby_state_91a8b6|5|1 51,0,0,0,0,0,0,0,0,0,0,0,0,0,0,51,
scooby_state_91a81d|33|1 51,0,0,0,0,0,0,0,0,0,0,0,0,0,0,51,
scooby_state_91a841|34|1 51,0,0,0,0,0,0,0,0,0,0,0,0,0,0,51,
scooby_state_91a8b6|52|1 51,0,0,0,0,0,0,0,0,0,0,0,0,0,0,51,
scooby_state_90b5de|32|1 51,0,0,0,0,0,0,0,0,0,0,0,0,0,0,51,
scooby_state_91a8b6|12|1 51,0,0,0,0,0,0,0,0,0,0,0,0,0,0,51,
scooby_state_91a8bb|47|1 51,0,0,0,0,0,0,0,0,0,0,0,0,0,0,51,
scooby_state_91a841|39|1 51,0,0,0,0,0,0,0,0,0,0,0,0,0,0,51,
scooby_state_91a81d|10|1 51,0,0,0,0,0,0,0,0,0,0,0,0,0,0,51,
scooby_state_91a8bb|63|1 51,0,0,0,0,0,0,0,0,0,0,0,0,0,0,51,
scooby_state_91a8b6|46|1 51,0,0,0,0,0,0,0,0,0,0,0,0,0,0,51,
scooby_state_91a841|35|1 51,0,0,0,0,0,0,0,0,0,0,0,0,0,0,51,
scooby_state_91a8bb|42|1 51,0,0,0,0,0,0,0,0,0,0,0,0,0,0,51,
scooby_state_91a8b6|27|1 51,0,0,0,0,0,0,0,0,0,0,0,0,0,0,51,
scooby_state_91a81d|22|1 51,0,0,0,0,0,0,0,0,0,0,0,0,0,0,51,
scooby_state_91a8bb|3|1 51,0,0,0,0,0,0,0,0,0,0,0,0,0,0,51,
scooby_state_91a8bb|21|1 51,0,0,0,0,0,0,0,0,0,0,0,0,0,0,51,
scooby_state_91a841|11|1 51,0,0,0,0,0,0,0,0,0,0,0,0,0,0,51,
scooby_state_91a81d|31|1 51,0,0,0,0,0,0,0,0,0,0,0,0,0,0,51,
scooby_state_91a84e|56|1 50,0,0,0,0,0,0,0,0,0,0,0,0,0,0,50,
scooby_state_91a841|62|1 50,0,0,0,0,0,0,0,0,0,0,0,0,0,0,50,
scooby_state_91a869|7|1 50,0,0,0,0,0,0,0,0,0,0,0,0,0,0,50,
scooby_state_91a841|52|1 50,0,0,0,0,0,0,0,0,0,0,0,0,0,0,50,
scooby_state_91a841|30|1 50,0,0,0,0,0,0,0,0,0,0,0,0,0,0,50,
scooby_state_91a8bb|13|1 50,0,0,0,0,0,0,0,0,0,0,0,0,0,0,50,
scooby_state_91a8bb|39|1 50,0,0,0,0,0,0,0,0,0,0,0,0,0,0,50,
scooby_state_91a81d|62|1 50,0,0,0,0,0,0,0,0,0,0,0,0,0,0,50,
scooby_state_91a841|43|1 50,0,0,0,0,0,0,0,0,0,0,0,0,0,0,50,
scooby_state_91a81d|3|1 50,0,0,0,0,0,0,0,0,0,0,0,0,0,0,50,
scooby_state_91a81d|44|1 50,0,0,0,0,0,0,0,0,0,0,0,0,0,0,50,
scooby_state_91a84e|46|1 50,0,0,0,0,0,0,0,0,0,0,0,0,0,0,50,
scooby_state_91a81d|46|1 50,0,0,0,0,0,0,0,0,0,0,0,0,0,0,50,
scooby_state_91a81d|13|1 50,0,0,0,0,0,0,0,0,0,0,0,0,0,0,50,
scooby_state_91a84e|14|1 50,0,0,0,0,0,0,0,0,0,0,0,0,0,0,50,
scooby_state_91a8b6|14|1 50,0,0,0,0,0,0,0,0,0,0,0,0,0,0,50,
scooby_state_91a869|51|1 49,0,0,0,0,0,0,0,0,0,0,1,0,0,0,50,
scooby_state_91a841|4|1 50,0,0,0,0,0,0,0,0,0,0,0,0,0,0,50,
scooby_state_91a8bb|8|1 50,0,0,0,0,0,0,0,0,0,0,0,0,0,0,50,
scooby_state_90b5de|62|1 49,0,0,0,0,0,0,0,0,1,0,0,0,0,0,50,
scooby_state_91a8bb|11|1 50,0,0,0,0,0,0,0,0,0,0,0,0,0,0,50,
scooby_state_91a81d|23|1 50,0,0,0,0,0,0,0,0,0,0,0,0,0,0,50,
scooby_state_91a8bb|31|1 50,0,0,0,0,0,0,0,0,0,0,0,0,0,0,50,
scooby_state_91a84e|19|1 50,0,0,0,0,0,0,0,0,0,0,0,0,0,0,50,
scooby_state_91a81d|54|1 50,0,0,0,0,0,0,0,0,0,0,0,0,0,0,50,
scooby_state_91a8b6|59|1 50,0,0,0,0,0,0,0,0,0,0,0,0,0,0,50,
scooby_state_90b5de|55|1 50,0,0,0,0,0,0,0,0,0,0,0,0,0,0,50,
scooby_state_91a8bb|9|1 50,0,0,0,0,0,0,0,0,0,0,0,0,0,0,50,
scooby_state_91a8b6|23|1 50,0,0,0,0,0,0,0,0,0,0,0,0,0,0,50,
scooby_state_91a841|24|1 50,0,0,0,0,0,0,0,0,0,0,0,0,0,0,50,
scooby_state_91a8bb|34|1 50,0,0,0,0,0,0,0,0,0,0,0,0,0,0,50,
scooby_state_91a8b6|49|1 50,0,0,0,0,0,0,0,0,0,0,0,0,0,0,50,
scooby_state_91a84e|18|1 50,0,0,0,0,0,0,0,0,0,0,0,0,0,0,50,
scooby_state_91a84e|6|1 50,0,0,0,0,0,0,0,0,0,0,0,0,0,0,50,
scooby_state_91a841|44|1 50,0,0,0,0,0,0,0,0,0,0,0,0,0,0,50,
scooby_state_91a869|20|1 50,0,0,0,0,0,0,0,0,0,0,0,0,0,0,50,
scooby_state_91a8bb|12|1 50,0,0,0,0,0,0,0,0,0,0,0,0,0,0,50,
scooby_state_91a8b6|47|1 50,0,0,0,0,0,0,0,0,0,0,0,0,0,0,50,
scooby_state_90b5de|6|1 50,0,0,0,0,0,0,0,0,0,0,0,0,0,0,50,
scooby_state_91a8bb|54|1 49,0,0,0,0,0,0,0,0,1,0,0,0,0,0,50,
scooby_state_90b5de|46|1 50,0,0,0,0,0,0,0,0,0,0,0,0,0,0,50,
scooby_state_91a841|14|1 50,0,0,0,0,0,0,0,0,0,0,0,0,0,0,50,
scooby_state_91a87b|24|1 50,0,0,0,0,0,0,0,0,0,0,0,0,0,0,50,
scooby_state_91a8b6|2|1 50,0,0,0,0,0,0,0,0,0,0,0,0,0,0,50,
scooby_state_91a8bb|33|1 50,0,0,0,0,0,0,0,0,0,0,0,0,0,0,50,
scooby_state_91a81d|61|1 50,0,0,0,0,0,0,0,0,0,0,0,0,0,0,50,
scooby_state_91a81d|32|1 50,0,0,0,0,0,0,0,0,0,0,0,0,0,0,50,
scooby_state_91a869|8|1 50,0,0,0,0,0,0,0,0,0,0,0,0,0,0,50,
scooby_state_90b5de|41|1 50,0,0,0,0,0,0,0,0,0,0,0,0,0,0,50,
scooby_state_91a841|12|1 50,0,0,0,0,0,0,0,0,0,0,0,0,0,0,50,
scooby_state_91a841|60|1 50,0,0,0,0,0,0,0,0,0,0,0,0,0,0,50,
scooby_state_91a8bb|59|1 50,0,0,0,0,0,0,0,0,0,0,0,0,0,0,50,
scooby_state_91a869|49|1 50,0,0,0,0,0,0,0,0,0,0,0,0,0,0,50,
scooby_state_91a869|18|1 48,1,0,0,0,1,0,0,0,0,0,0,0,0,0,50,
scooby_state_91a81d|47|1 50,0,0,0,0,0,0,0,0,0,0,0,0,0,0,50,
scooby_state_91a869|6|1 50,0,0,0,0,0,0,0,0,0,0,0,0,0,0,50,
scooby_state_91a8bb|58|1 50,0,0,0,0,0,0,0,0,0,0,0,0,0,0,50,
scooby_state_91a8b6|26|1 49,0,0,0,1,0,0,0,0,0,0,0,0,0,0,50,
scooby_state_91a8bb|50|1 50,0,0,0,0,0,0,0,0,0,0,0,0,0,0,50,
scooby_state_90b5de|26|1 50,0,0,0,0,0,0,0,0,0,0,0,0,0,0,50,
scooby_state_91a8bb|6|1 50,0,0,0,0,0,0,0,0,0,0,0,0,0,0,50,
scooby_state_91a841|20|1 50,0,0,0,0,0,0,0,0,0,0,0,0,0,0,50,
scooby_state_91a8bb|36|1 50,0,0,0,0,0,0,0,0,0,0,0,0,0,0,50,
scooby_state_91a84e|8|1 50,0,0,0,0,0,0,0,0,0,0,0,0,0,0,50,
scooby_state_91a84e|4|1 50,0,0,0,0,0,0,0,0,0,0,0,0,0,0,50,
scooby_state_91a84e|60|1 50,0,0,0,0,0,0,0,0,0,0,0,0,0,0,50,
scooby_state_91a8b6|63|1 50,0,0,0,0,0,0,0,0,0,0,0,0,0,0,50,
scooby_state_91a869|3|1 49,0,0,0,0,0,0,0,0,0,1,0,0,0,0,50,
scooby_state_91a8bb|24|1 50,0,0,0,0,0,0,0,0,0,0,0,0,0,0,50,
scooby_state_91a8b6|40|1 50,0,0,0,0,0,0,0,0,0,0,0,0,0,0,50,
scooby_state_91a8bb|52|1 50,0,0,0,0,0,0,0,0,0,0,0,0,0,0,50,
scooby_state_91a87b|26|1 50,0,0,0,0,0,0,0,0,0,0,0,0,0,0,50,
scooby_state_91a81d|24|1 50,0,0,0,0,0,0,0,0,0,0,0,0,0,0,50,
scooby_state_91a869|53|1 50,0,0,0,0,0,0,0,0,0,0,0,0,0,0,50,
scooby_state_91a8b6|44|1 50,0,0,0,0,0,0,0,0,0,0,0,0,0,0,50,
scooby_state_91a841|26|1 50,0,0,0,0,0,0,0,0,0,0,0,0,0,0,50,
scooby_state_91a84e|41|1 50,0,0,0,0,0,0,0,0,0,0,0,0,0,0,50,
scooby_state_91a84e|35|1 50,0,0,0,0,0,0,0,0,0,0,0,0,0,0,50,
scooby_state_91a869|35|1 50,0,0,0,0,0,0,0,0,0,0,0,0,0,0,50,
scooby_state_91a8bb|7|1 50,0,0,0,0,0,0,0,0,0,0,0,0,0,0,50,
scooby_state_91a8bb|14|1 50,0,0,0,0,0,0,0,0,0,0,0,0,0,0,50,
scooby_state_90b5de|57|1 50,0,0,0,0,0,0,0,0,0,0,0,0,0,0,50,
scooby_state_91a869|36|1 50,0,0,0,0,0,0,0,0,0,0,0,0,0,0,50,
scooby_state_91a8bb|38|1 50,0,0,0,0,0,0,0,0,0,0,0,0,0,0,50,
scooby_state_91a81d|20|1 50,0,0,0,0,0,0,0,0,0,0,0,0,0,0,50,
scooby_state_91a84e|26|1 50,0,0,0,0,0,0,0,0,0,0,0,0,0,0,50,
scooby_state_91a81d|16|1 50,0,0,0,0,0,0,0,0,0,0,0,0,0,0,50,
scooby_state_91a8bb|37|1 50,0,0,0,0,0,0,0,0,0,0,0,0,0,0,50,
scooby_state_91a8b6|25|1 50,0,0,0,0,0,0,0,0,0,0,0,0,0,0,50,
scooby_state_91a81d|4|1 50,0,0,0,0,0,0,0,0,0,0,0,0,0,0,50,
scooby_state_91a869|46|1 50,0,0,0,0,0,0,0,0,0,0,0,0,0,0,50,
scooby_state_91a869|54|1 50,0,0,0,0,0,0,0,0,0,0,0,0,0,0,50,
scooby_state_91a869|60|1 50,0,0,0,0,0,0,0,0,0,0,0,0,0,0,50,
scooby_state_91a8b6|4|1 50,0,0,0,0,0,0,0,0,0,0,0,0,0,0,50,
scooby_state_91a81d|6|1 50,0,0,0,0,0,0,0,0,0,0,0,0,0,0,50,
scooby_state_91a8b6|21|1 50,0,0,0,0,0,0,0,0,0,0,0,0,0,0,50,
scooby_state_91a8bb|51|1 50,0,0,0,0,0,0,0,0,0,0,0,0,0,0,50,
scooby_state_91a841|16|1 50,0,0,0,0,0,0,0,0,0,0,0,0,0,0,50,
scooby_state_91a8bb|41|1 50,0,0,0,0,0,0,0,0,0,0,0,0,0,0,50,
scooby_state_91a84e|38|1 50,0,0,0,0,0,0,0,0,0,0,0,0,0,0,50,
scooby_state_91a8bb|10|1 50,0,0,0,0,0,0,0,0,0,0,0,0,0,0,50,
scooby_state_91a8bb|5|1 50,0,0,0,0,0,0,0,0,0,0,0,0,0,0,50,
scooby_state_91a841|17|1 50,0,0,0,0,0,0,0,0,0,0,0,0,0,0,50,
scooby_state_91a841|57|1 50,0,0,0,0,0,0,0,0,0,0,0,0,0,0,50,
scooby_state_91a841|31|1 50,0,0,0,0,0,0,0,0,0,0,0,0,0,0,50,
scooby_state_91a8b6|61|1 50,0,0,0,0,0,0,0,0,0,0,0,0,0,0,50,
scooby_state_91a841|61|1 50,0,0,0,0,0,0,0,0,0,0,0,0,0,0,50,
scooby_state_91a8bb|53|1 50,0,0,0,0,0,0,0,0,0,0,0,0,0,0,50,
scooby_state_91a841|13|1 50,0,0,0,0,0,0,0,0,0,0,0,0,0,0,50,
scooby_state_91a841|51|1 49,0,0,0,0,0,0,0,0,0,1,0,0,0,0,50,
scooby_state_91a84e|47|1 50,0,0,0,0,0,0,0,0,0,0,0,0,0,0,50,
scooby_state_91a8bb|35|1 50,0,0,0,0,0,0,0,0,0,0,0,0,0,0,50,
scooby_state_91a81d|18|1 50,0,0,0,0,0,0,0,0,0,0,0,0,0,0,50,
scooby_state_91a84e|33|1 50,0,0,0,0,0,0,0,0,0,0,0,0,0,0,50,
scooby_state_91a841|32|1 50,0,0,0,0,0,0,0,0,0,0,0,0,0,0,50,
scooby_state_91a81d|30|1 50,0,0,0,0,0,0,0,0,0,0,0,0,0,0,50,
scooby_state_90b571|14|1 50,0,0,0,0,0,0,0,0,0,0,0,0,0,0,50,
scooby_state_91a8bb|40|1 50,0,0,0,0,0,0,0,0,0,0,0,0,0,0,50,
scooby_state_91a869|38|1 48,0,1,0,1,0,0,0,0,0,0,0,0,0,0,50,
scooby_state_91a81d|29|1 50,0,0,0,0,0,0,0,0,0,0,0,0,0,0,50,
scooby_state_90b5de|59|1 50,0,0,0,0,0,0,0,0,0,0,0,0,0,0,50,
scooby_state_91a8bb|60|1 50,0,0,0,0,0,0,0,0,0,0,0,0,0,0,50,
scooby_state_91a8b6|45|1 50,0,0,0,0,0,0,0,0,0,0,0,0,0,0,50,
scooby_state_91a8b6|28|1 50,0,0,0,0,0,0,0,0,0,0,0,0,0,0,50,
scooby_state_91a81d|26|1 49,0,0,0,0,0,0,0,0,0,0,0,0,1,0,50,
scooby_state_91a84e|12|1 50,0,0,0,0,0,0,0,0,0,0,0,0,0,0,50,
scooby_state_91a84e|58|1 50,0,0,0,0,0,0,0,0,0,0,0,0,0,0,50,
scooby_state_91a84e|13|1 50,0,0,0,0,0,0,0,0,0,0,0,0,0,0,50,
scooby_state_91a869|11|1 49,1,0,0,0,0,0,0,0,0,0,0,0,0,0,50,
scooby_state_91a81d|50|1 50,0,0,0,0,0,0,0,0,0,0,0,0,0,0,50,
scooby_state_91a8bb|55|1 50,0,0,0,0,0,0,0,0,0,0,0,0,0,0,50,
scooby_state_91a869|10|1 50,0,0,0,0,0,0,0,0,0,0,0,0,0,0,50,
scooby_state_91a841|18|1 50,0,0,0,0,0,0,0,0,0,0,0,0,0,0,50,
scooby_state_91a84e|10|1 50,0,0,0,0,0,0,0,0,0,0,0,0,0,0,50,
scooby_state_91a8bb|57|1 50,0,0,0,0,0,0,0,0,0,0,0,0,0,0,50,
scooby_state_91a841|7|1 50,0,0,0,0,0,0,0,0,0,0,0,0,0,0,50,
scooby_state_91a8bb|32|1 50,0,0,0,0,0,0,0,0,0,0,0,0,0,0,50,
scooby_state_91a81d|27|1 50,0,0,0,0,0,0,0,0,0,0,0,0,0,0,50,
scooby_state_91a841|9|1 50,0,0,0,0,0,0,0,0,0,0,0,0,0,0,50,
scooby_state_91a87b|25|1 50,0,0,0,0,0,0,0,0,0,0,0,0,0,0,50,
scooby_state_91a8bb|25|1 50,0,0,0,0,0,0,0,0,0,0,0,0,0,0,50,
scooby_state_91a81d|43|1 50,0,0,0,0,0,0,0,0,0,0,0,0,0,0,50,
scooby_state_91a8bb|56|1 50,0,0,0,0,0,0,0,0,0,0,0,0,0,0,50,
scooby_state_91a869|41|1 50,0,0,0,0,0,0,0,0,0,0,0,0,0,0,50,
scooby_state_91a841|6|1 50,0,0,0,0,0,0,0,0,0,0,0,0,0,0,50,
scooby_state_91a84e|62|1 50,0,0,0,0,0,0,0,0,0,0,0,0,0,0,50,
scooby_state_91a8bb|26|1 50,0,0,0,0,0,0,0,0,0,0,0,0,0,0,50,
scooby_state_91a869|58|1 49,0,0,0,1,0,0,0,0,0,0,0,0,0,0,50,
scooby_state_91a81d|52|1 50,0,0,0,0,0,0,0,0,0,0,0,0,0,0,50,
scooby_state_91a8bb|15|1 50,0,0,0,0,0,0,0,0,0,0,0,0,0,0,50,
scooby_state_91a869|19|1 50,0,0,0,0,0,0,0,0,0,0,0,0,0,0,50,
scooby_state_91a81d|14|1 50,0,0,0,0,0,0,0,0,0,0,0,0,0,0,50,
scooby_state_91a841|50|1 50,0,0,0,0,0,0,0,0,0,0,0,0,0,0,50,
scooby_state_91a869|13|1 50,0,0,0,0,0,0,0,0,0,0,0,0,0,0,50,
scooby_state_91a869|47|1 50,0,0,0,0,0,0,0,0,0,0,0,0,0,0,50,
scooby_state_91a841|22|1 50,0,0,0,0,0,0,0,0,0,0,0,0,0,0,50,
scooby_state_91a8b6|42|1 50,0,0,0,0,0,0,0,0,0,0,0,0,0,0,50,
scooby_state_91a869|21|1 50,0,0,0,0,0,0,0,0,0,0,0,0,0,0,50,
scooby_state_91a8b6|30|1 50,0,0,0,0,0,0,0,0,0,0,0,0,0,0,50,
scooby_state_91a869|12|1 50,0,0,0,0,0,0,0,0,0,0,0,0,0,0,50,
scooby_state_91a81d|45|1 50,0,0,0,0,0,0,0,0,0,0,0,0,0,0,50,
scooby_state_91a81d|49|1 49,0,0,0,0,0,0,0,0,0,0,0,0,0,0,49,
scooby_state_91a841|59|1 48,0,0,0,1,0,0,0,0,0,0,0,0,0,0,49,
scooby_state_91a869|56|1 49,0,0,0,0,0,0,0,0,0,0,0,0,0,0,49,
scooby_state_91a81d|42|1 49,0,0,0,0,0,0,0,0,0,0,0,0,0,0,49,
scooby_state_91a841|54|1 49,0,0,0,0,0,0,0,0,0,0,0,0,0,0,49,
scooby_state_91a84e|54|1 49,0,0,0,0,0,0,0,0,0,0,0,0,0,0,49,
scooby_state_90b5de|45|1 49,0,0,0,0,0,0,0,0,0,0,0,0,0,0,49,
scooby_state_91a81d|21|1 49,0,0,0,0,0,0,0,0,0,0,0,0,0,0,49,
scooby_state_91a869|31|1 49,0,0,0,0,0,0,0,0,0,0,0,0,0,0,49,
scooby_state_91a81d|37|1 48,0,0,0,0,1,0,0,0,0,0,0,0,0,0,49,
scooby_state_91a84e|24|1 49,0,0,0,0,0,0,0,0,0,0,0,0,0,0,49,
scooby_state_91a841|42|1 49,0,0,0,0,0,0,0,0,0,0,0,0,0,0,49,
scooby_state_91a869|9|1 49,0,0,0,0,0,0,0,0,0,0,0,0,0,0,49,
scooby_state_91a869|28|1 49,0,0,0,0,0,0,0,0,0,0,0,0,0,0,49,
scooby_state_91a84e|40|1 49,0,0,0,0,0,0,0,0,0,0,0,0,0,0,49,
scooby_state_91a841|28|1 49,0,0,0,0,0,0,0,0,0,0,0,0,0,0,49,
scooby_state_91a84e|32|1 49,0,0,0,0,0,0,0,0,0,0,0,0,0,0,49,
scooby_state_91a81d|63|1 48,0,0,0,0,1,0,0,0,0,0,0,0,0,0,49,
scooby_state_91a841|47|1 49,0,0,0,0,0,0,0,0,0,0,0,0,0,0,49,
scooby_state_91a869|33|1 49,0,0,0,0,0,0,0,0,0,0,0,0,0,0,49,
scooby_state_91a841|37|1 49,0,0,0,0,0,0,0,0,0,0,0,0,0,0,49,
scooby_state_91a81d|40|1 49,0,0,0,0,0,0,0,0,0,0,0,0,0,0,49,
scooby_state_90b5de|43|1 49,0,0,0,0,0,0,0,0,0,0,0,0,0,0,49,
scooby_state_91a81d|25|1 49,0,0,0,0,0,0,0,0,0,0,0,0,0,0,49,
scooby_state_91a869|43|1 49,0,0,0,0,0,0,0,0,0,0,0,0,0,0,49,
scooby_state_91a869|17|1 49,0,0,0,0,0,0,0,0,0,0,0,0,0,0,49,
scooby_state_90b571|63|1 49,0,0,0,0,0,0,0,0,0,0,0,0,0,0,49,
scooby_state_91a869|4|1 48,1,0,0,0,0,0,0,0,0,0,0,0,0,0,49,
scooby_state_91a84e|51|1 49,0,0,0,0,0,0,0,0,0,0,0,0,0,0,49,
scooby_state_91a84e|27|1 48,0,0,1,0,0,0,0,0,0,0,0,0,0,0,49,
scooby_state_91a869|39|1 49,0,0,0,0,0,0,0,0,0,0,0,0,0,0,49,
scooby_state_90b571|39|1 49,0,0,0,0,0,0,0,0,0,0,0,0,0,0,49,
scooby_state_91a869|25|1 49,0,0,0,0,0,0,0,0,0,0,0,0,0,0,49,
scooby_state_90b59e|7|1 49,0,0,0,0,0,0,0,0,0,0,0,0,0,0,49,
scooby_state_91a869|45|1 49,0,0,0,0,0,0,0,0,0,0,0,0,0,0,49,
scooby_state_91a84e|21|1 49,0,0,0,0,0,0,0,0,0,0,0,0,0,0,49,
scooby_state_91a841|15|1 49,0,0,0,0,0,0,0,0,0,0,0,0,0,0,49,
scooby_state_91a869|16|1 49,0,0,0,0,0,0,0,0,0,0,0,0,0,0,49,
scooby_state_91a81d|57|1 49,0,0,0,0,0,0,0,0,0,0,0,0,0,0,49,
scooby_state_91a869|1|1 49,0,0,0,0,0,0,0,0,0,0,0,0,0,0,49,
scooby_state_90b5de|29|1 49,0,0,0,0,0,0,0,0,0,0,0,0,0,0,49,
scooby_state_91a81d|2|1 49,0,0,0,0,0,0,0,0,0,0,0,0,0,0,49,
scooby_state_91a841|2|1 49,0,0,0,0,0,0,0,0,0,0,0,0,0,0,49,
scooby_state_91a84e|16|1 49,0,0,0,0,0,0,0,0,0,0,0,0,0,0,49,
scooby_state_90b5de|17|1 49,0,0,0,0,0,0,0,0,0,0,0,0,0,0,49,
scooby_state_91a81d|15|1 49,0,0,0,0,0,0,0,0,0,0,0,0,0,0,49,
scooby_state_91a869|40|1 49,0,0,0,0,0,0,0,0,0,0,0,0,0,0,49,
scooby_state_91a81d|59|1 49,0,0,0,0,0,0,0,0,0,0,0,0,0,0,49,
scooby_state_90b5de|20|1 49,0,0,0,0,0,0,0,0,0,0,0,0,0,0,49,
scooby_state_91a841|29|1 48,1,0,0,0,0,0,0,0,0,0,0,0,0,0,49,
scooby_state_91a841|21|1 49,0,0,0,0,0,0,0,0,0,0,0,0,0,0,49,
scooby_state_91a84e|28|1 49,0,0,0,0,0,0,0,0,0,0,0,0,0,0,49,
scooby_state_90b5de|28|1 49,0,0,0,0,0,0,0,0,0,0,0,0,0,0,49,
scooby_state_91a84e|20|1 49,0,0,0,0,0,0,0,0,0,0,0,0,0,0,49,
scooby_state_91a841|27|1 48,0,0,0,0,1,0,0,0,0,0,0,0,0,0,49,
scooby_state_91a869|26|1 49,0,0,0,0,0,0,0,0,0,0,0,0,0,0,49,
scooby_state_91a81d|28|1 49,0,0,0,0,0,0,0,0,0,0,0,0,0,0,49,
scooby_state_91a869|29|1 49,0,0,0,0,0,0,0,0,0,0,0,0,0,0,49,
scooby_state_90b5de|7|1 48,0,0,1,0,0,0,0,0,0,0,0,0,0,0,49,
scooby_state_90b5de|39|1 49,0,0,0,0,0,0,0,0,0,0,0,0,0,0,49,
scooby_state_91a869|24|1 49,0,0,0,0,0,0,0,0,0,0,0,0,0,0,49,
scooby_state_91a869|62|1 49,0,0,0,0,0,0,0,0,0,0,0,0,0,0,49,
scooby_state_91a869|32|1 49,0,0,0,0,0,0,0,0,0,0,0,0,0,0,49,
scooby_state_91a841|63|1 49,0,0,0,0,0,0,0,0,0,0,0,0,0,0,49,
scooby_state_90b5de|56|1 48,0,0,0,0,0,0,0,1,0,0,0,0,0,0,49,
scooby_state_90b5de|36|1 49,0,0,0,0,0,0,0,0,0,0,0,0,0,0,49,
scooby_state_91a869|14|1 49,0,0,0,0,0,0,0,0,0,0,0,0,0,0,49,
scooby_state_91a841|40|1 49,0,0,0,0,0,0,0,0,0,0,0,0,0,0,49,
scooby_state_91a84e|1|1 49,0,0,0,0,0,0,0,0,0,0,0,0,0,0,49,
scooby_state_91a84e|39|1 49,0,0,0,0,0,0,0,0,0,0,0,0,0,0,49,
scooby_state_91a869|63|1 49,0,0,0,0,0,0,0,0,0,0,0,0,0,0,49,
scooby_state_90b571|28|1 48,0,0,0,0,0,0,0,0,0,0,0,0,0,0,48,
scooby_state_91a87b|17|1 48,0,0,0,0,0,0,0,0,0,0,0,0,0,0,48,
scooby_state_91a84e|3|1 48,0,0,0,0,0,0,0,0,0,0,0,0,0,0,48,
scooby_state_90b571|36|1 48,0,0,0,0,0,0,0,0,0,0,0,0,0,0,48,
scooby_state_91a869|23|1 48,0,0,0,0,0,0,0,0,0,0,0,0,0,0,48,
scooby_state_91a84e|30|1 48,0,0,0,0,0,0,0,0,0,0,0,0,0,0,48,
scooby_state_91a84e|25|1 48,0,0,0,0,0,0,0,0,0,0,0,0,0,0,48,
scooby_state_91a869|30|1 48,0,0,0,0,0,0,0,0,0,0,0,0,0,0,48,
scooby_state_91a84e|7|1 48,0,0,0,0,0,0,0,0,0,0,0,0,0,0,48,
scooby_state_90b571|2|1 48,0,0,0,0,0,0,0,0,0,0,0,0,0,0,48,
scooby_state_90b571|44|1 48,0,0,0,0,0,0,0,0,0,0,0,0,0,0,48,
scooby_state_91a84e|50|1 48,0,0,0,0,0,0,0,0,0,0,0,0,0,0,48,
scooby_state_91a841|49|1 48,0,0,0,0,0,0,0,0,0,0,0,0,0,0,48,
scooby_state_90b5de|54|1 48,0,0,0,0,0,0,0,0,0,0,0,0,0,0,48,
scooby_state_91a84e|17|1 47,0,0,0,0,0,1,0,0,0,0,0,0,0,0,48,
scooby_state_90b5de|61|1 48,0,0,0,0,0,0,0,0,0,0,0,0,0,0,48,
scooby_state_90b571|16|1 48,0,0,0,0,0,0,0,0,0,0,0,0,0,0,48,
scooby_state_91a84e|43|1 48,0,0,0,0,0,0,0,0,0,0,0,0,0,0,48,
scooby_state_91a84e|52|1 48,0,0,0,0,0,0,0,0,0,0,0,0,0,0,48,
scooby_state_90b5de|10|1 48,0,0,0,0,0,0,0,0,0,0,0,0,0,0,48,
scooby_state_91a87b|23|1 48,0,0,0,0,0,0,0,0,0,0,0,0,0,0,48,
scooby_state_91a869|42|1 48,0,0,0,0,0,0,0,0,0,0,0,0,0,0,48,
scooby_state_91a87b|21|1 47,0,1,0,0,0,0,0,0,0,0,0,0,0,0,48,
scooby_state_90b5de|44|1 48,0,0,0,0,0,0,0,0,0,0,0,0,0,0,48,
scooby_state_91a87b|18|1 48,0,0,0,0,0,0,0,0,0,0,0,0,0,0,48,
scooby_state_91a869|50|1 48,0,0,0,0,0,0,0,0,0,0,0,0,0,0,48,
scooby_state_91a84e|9|1 48,0,0,0,0,0,0,0,0,0,0,0,0,0,0,48,
scooby_state_91a84e|61|1 47,1,0,0,0,0,0,0,0,0,0,0,0,0,0,48,
scooby_state_90b5de|42|1 48,0,0,0,0,0,0,0,0,0,0,0,0,0,0,48,
scooby_state_91a869|52|1 48,0,0,0,0,0,0,0,0,0,0,0,0,0,0,48,
scooby_state_90b571|46|1 48,0,0,0,0,0,0,0,0,0,0,0,0,0,0,48,
scooby_state_90b571|35|1 48,0,0,0,0,0,0,0,0,0,0,0,0,0,0,48,
scooby_state_91a841|23|1 48,0,0,0,0,0,0,0,0,0,0,0,0,0,0,48,
scooby_state_90b5de|48|1 48,0,0,0,0,0,0,0,0,0,0,0,0,0,0,48,
scooby_state_90b59e|42|1 47,0,0,0,0,0,0,1,0,0,0,0,0,0,0,48,
scooby_state_91a869|57|1 48,0,0,0,0,0,0,0,0,0,0,0,0,0,0,48,
scooby_state_91a84e|31|1 48,0,0,0,0,0,0,0,0,0,0,0,0,0,0,48,
scooby_state_90b5de|24|1 48,0,0,0,0,0,0,0,0,0,0,0,0,0,0,48,
scooby_state_91a87b|22|1 48,0,0,0,0,0,0,0,0,0,0,0,0,0,0,48,
scooby_state_91a869|61|1 48,0,0,0,0,0,0,0,0,0,0,0,0,0,0,48,
scooby_state_91a84e|63|1 48,0,0,0,0,0,0,0,0,0,0,0,0,0,0,48,
scooby_state_91a869|37|1 48,0,0,0,0,0,0,0,0,0,0,0,0,0,0,48,
scooby_state_90b571|19|1 47,0,0,0,0,0,0,0,0,0,0,0,0,0,0,47,
scooby_state_91a84e|45|1 47,0,0,0,0,0,0,0,0,0,0,0,0,0,0,47,
scooby_state_90b59e|48|1 47,0,0,0,0,0,0,0,0,0,0,0,0,0,0,47,
scooby_state_91a869|15|1 47,0,0,0,0,0,0,0,0,0,0,0,0,0,0,47,
scooby_state_91a87b|16|1 47,0,0,0,0,0,0,0,0,0,0,0,0,0,0,47,
scooby_state_90b5de|4|1 47,0,0,0,0,0,0,0,0,0,0,0,0,0,0,47,
scooby_state_91a84e|44|1 47,0,0,0,0,0,0,0,0,0,0,0,0,0,0,47,
scooby_state_91a869|44|1 47,0,0,0,0,0,0,0,0,0,0,0,0,0,0,47,
scooby_state_90b5de|38|1 47,0,0,0,0,0,0,0,0,0,0,0,0,0,0,47,
scooby_state_91a84e|42|1 47,0,0,0,0,0,0,0,0,0,0,0,0,0,0,47,
scooby_state_90b571|38|1 47,0,0,0,0,0,0,0,0,0,0,0,0,0,0,47,
scooby_state_90b5de|60|1 46,0,0,0,0,1,0,0,0,0,0,0,0,0,0,47,
scooby_state_90b59e|31|1 47,0,0,0,0,0,0,0,0,0,0,0,0,0,0,47,
scooby_state_91a84e|57|1 47,0,0,0,0,0,0,0,0,0,0,0,0,0,0,47,
scooby_state_91a87b|19|1 47,0,0,0,0,0,0,0,0,0,0,0,0,0,0,47,
scooby_state_91a84e|37|1 47,0,0,0,0,0,0,0,0,0,0,0,0,0,0,47,
scooby_state_91a87b|20|1 47,0,0,0,0,0,0,0,0,0,0,0,0,0,0,47,
scooby_state_90b5de|34|1 47,0,0,0,0,0,0,0,0,0,0,0,0,0,0,47,
scooby_state_90b571|20|1 47,0,0,0,0,0,0,0,0,0,0,0,0,0,0,47,
scooby_state_91a84e|49|1 47,0,0,0,0,0,0,0,0,0,0,0,0,0,0,47,
scooby_state_91a841|25|1 47,0,0,0,0,0,0,0,0,0,0,0,0,0,0,47,
scooby_state_90b59e|18|1 46,0,0,0,0,0,1,0,0,0,0,0,0,0,0,47,
scooby_state_91a84e|2|1 46,1,0,0,0,0,0,0,0,0,0,0,0,0,0,47,
scooby_state_90b571|30|1 47,0,0,0,0,0,0,0,0,0,0,0,0,0,0,47,
scooby_state_90b5de|31|1 47,0,0,0,0,0,0,0,0,0,0,0,0,0,0,47,
scooby_state_91a869|59|1 47,0,0,0,0,0,0,0,0,0,0,0,0,0,0,47,
scooby_state_91a841|45|1 47,0,0,0,0,0,0,0,0,0,0,0,0,0,0,47,
scooby_state_91a84e|59|1 46,0,0,0,0,0,0,0,0,0,0,0,1,0,0,47,
scooby_state_91a841|3|1 47,0,0,0,0,0,0,0,0,0,0,0,0,0,0,47,
scooby_state_90b571|13|1 47,0,0,0,0,0,0,0,0,0,0,0,0,0,0,47,
scooby_state_91a869|2|1 47,0,0,0,0,0,0,0,0,0,0,0,0,0,0,47,
scooby_state_91a84e|29|1 46,0,0,0,0,0,0,0,0,0,0,0,0,0,0,46,
scooby_state_90b59e|25|1 46,0,0,0,0,0,0,0,0,0,0,0,0,0,0,46,
scooby_state_91a869|0|0 46,0,0,0,0,0,0,0,0,0,0,0,0,0,0,46,
scooby_state_90b571|56|1 46,0,0,0,0,0,0,0,0,0,0,0,0,0,0,46,
scooby_state_90b59e|26|1 46,0,0,0,0,0,0,0,0,0,0,0,0,0,0,46,
scooby_state_91a84e|23|1 46,0,0,0,0,0,0,0,0,0,0,0,0,0,0,46,
scooby_state_90b59e|6|1 46,0,0,0,0,0,0,0,0,0,0,0,0,0,0,46,
scooby_state_90b5de|25|1 46,0,0,0,0,0,0,0,0,0,0,0,0,0,0,46,
scooby_state_90b571|45|1 46,0,0,0,0,0,0,0,0,0,0,0,0,0,0,46,
scooby_state_91a87b|10|1 46,0,0,0,0,0,0,0,0,0,0,0,0,0,0,46,
scooby_state_90b5de|18|1 46,0,0,0,0,0,0,0,0,0,0,0,0,0,0,46,
scooby_state_90b5de|8|1 46,0,0,0,0,0,0,0,0,0,0,0,0,0,0,46,
scooby_state_90b59e|35|1 45,0,0,0,0,0,0,0,0,1,0,0,0,0,0,46,
scooby_state_90b59e|45|1 46,0,0,0,0,0,0,0,0,0,0,0,0,0,0,46,
scooby_state_90b59e|54|1 46,0,0,0,0,0,0,0,0,0,0,0,0,0,0,46,
scooby_state_91a84e|15|1 46,0,0,0,0,0,0,0,0,0,0,0,0,0,0,46,
scooby_state_90b571|53|1 46,0,0,0,0,0,0,0,0,0,0,0,0,0,0,46,
scooby_state_90b59e|13|1 46,0,0,0,0,0,0,0,0,0,0,0,0,0,0,46,
scooby_state_90b571|47|1 46,0,0,0,0,0,0,0,0,0,0,0,0,0,0,46,
scooby_state_90b59e|29|1 46,0,0,0,0,0,0,0,0,0,0,0,0,0,0,46,
scooby_state_91a84e|22|1 46,0,0,0,0,0,0,0,0,0,0,0,0,0,0,46,
scooby_state_90b571|33|1 46,0,0,0,0,0,0,0,0,0,0,0,0,0,0,46,
scooby_state_90b59e|9|1 46,0,0,0,0,0,0,0,0,0,0,0,0,0,0,46,
scooby_state_90b59e|28|1 46,0,0,0,0,0,0,0,0,0,0,0,0,0,0,46,
scooby_state_90b571|0|0 46,0,0,0,0,0,0,0,0,0,0,0,0,0,0,46,
scooby_state_91a869|22|1 46,0,0,0,0,0,0,0,0,0,0,0,0,0,0,46,
scooby_state_90b571|22|1 46,0,0,0,0,0,0,0,0,0,0,0,0,0,0,46,
scooby_state_91a7cf|27|1 45,0,0,0,0,0,0,0,0,0,0,0,0,0,0,45,
scooby_state_90b571|42|1 45,0,0,0,0,0,0,0,0,0,0,0,0,0,0,45,
scooby_state_91a7cf|46|1 45,0,0,0,0,0,0,0,0,0,0,0,0,0,0,45,
scooby_state_90b59e|30|1 45,0,0,0,0,0,0,0,0,0,0,0,0,0,0,45,
scooby_state_90b571|37|1 45,0,0,0,0,0,0,0,0,0,0,0,0,0,0,45,
scooby_state_91a87b|13|1 45,0,0,0,0,0,0,0,0,0,0,0,0,0,0,45,
scooby_state_90b571|52|1 45,0,0,0,0,0,0,0,0,0,0,0,0,0,0,45,
scooby_state_90b571|54|1 44,0,0,0,0,0,0,0,0,0,0,1,0,0,0,45,
scooby_state_90b59e|46|1 45,0,0,0,0,0,0,0,0,0,0,0,0,0,0,45,
scooby_state_91a87b|12|1 45,0,0,0,0,0,0,0,0,0,0,0,0,0,0,45,
scooby_state_90b571|31|1 45,0,0,0,0,0,0,0,0,0,0,0,0,0,0,45,
scooby_state_91a87b|9|1 45,0,0,0,0,0,0,0,0,0,0,0,0,0,0,45,
scooby_state_91a7cf|41|1 45,0,0,0,0,0,0,0,0,0,0,0,0,0,0,45,
scooby_state_91a84e|0|0 45,0,0,0,0,0,0,0,0,0,0,0,0,0,0,45,
scooby_state_90b59e|15|1 45,0,0,0,0,0,0,0,0,0,0,0,0,0,0,45,
scooby_state_90b571|55|1 45,0,0,0,0,0,0,0,0,0,0,0,0,0,0,45,
scooby_state_90b59e|43|1 45,0,0,0,0,0,0,0,0,0,0,0,0,0,0,45,
scooby_state_90b5de|53|1 45,0,0,0,0,0,0,0,0,0,0,0,0,0,0,45,
scooby_state_90b571|34|1 45,0,0,0,0,0,0,0,0,0,0,0,0,0,0,45,
scooby_state_90b571|51|1 45,0,0,0,0,0,0,0,0,0,0,0,0,0,0,45,
scooby_state_90b571|24|1 45,0,0,0,0,0,0,0,0,0,0,0,0,0,0,45,
scooby_state_90b59e|51|1 45,0,0,0,0,0,0,0,0,0,0,0,0,0,0,45,
scooby_state_90b5de|21|1 45,0,0,0,0,0,0,0,0,0,0,0,0,0,0,45,
scooby_state_90b571|12|1 45,0,0,0,0,0,0,0,0,0,0,0,0,0,0,45,
scooby_state_90b571|62|1 45,0,0,0,0,0,0,0,0,0,0,0,0,0,0,45,
scooby_state_90b571|8|1 45,0,0,0,0,0,0,0,0,0,0,0,0,0,0,45,
scooby_state_90b59e|40|1 45,0,0,0,0,0,0,0,0,0,0,0,0,0,0,45,
scooby_state_90b59e|12|1 45,0,0,0,0,0,0,0,0,0,0,0,0,0,0,45,
scooby_state_91a87b|14|1 44,0,0,0,0,0,0,0,0,0,0,0,0,0,0,44,
scooby_state_90b59e|57|1 44,0,0,0,0,0,0,0,0,0,0,0,0,0,0,44,
scooby_state_91a87b|5|1 44,0,0,0,0,0,0,0,0,0,0,0,0,0,0,44,
scooby_state_90b571|17|1 44,0,0,0,0,0,0,0,0,0,0,0,0,0,0,44,
scooby_state_90b59e|56|1 43,0,0,0,0,0,0,0,0,0,0,0,0,1,0,44,
scooby_state_90b59e|39|1 44,0,0,0,0,0,0,0,0,0,0,0,0,0,0,44,
scooby_state_90b571|4|1 44,0,0,0,0,0,0,0,0,0,0,0,0,0,0,44,
scooby_state_91a7cf|44|1 44,0,0,0,0,0,0,0,0,0,0,0,0,0,0,44,
scooby_state_90b59e|10|1 44,0,0,0,0,0,0,0,0,0,0,0,0,0,0,44,
scooby_state_91a87b|7|1 44,0,0,0,0,0,0,0,0,0,0,0,0,0,0,44,
scooby_state_90b571|18|1 44,0,0,0,0,0,0,0,0,0,0,0,0,0,0,44,
scooby_state_91a82a|55|1 44,0,0,0,0,0,0,0,0,0,0,0,0,0,0,44,
scooby_state_90b59e|52|1 44,0,0,0,0,0,0,0,0,0,0,0,0,0,0,44,
scooby_state_91a87b|6|1 44,0,0,0,0,0,0,0,0,0,0,0,0,0,0,44,
scooby_state_90b59e|32|1 44,0,0,0,0,0,0,0,0,0,0,0,0,0,0,44,
scooby_state_90b571|49|1 44,0,0,0,0,0,0,0,0,0,0,0,0,0,0,44,
scooby_state_91a7cf|47|1 44,0,0,0,0,0,0,0,0,0,0,0,0,0,0,44,
scooby_state_90b59e|21|1 44,0,0,0,0,0,0,0,0,0,0,0,0,0,0,44,
scooby_state_91a7cf|2|1 44,0,0,0,0,0,0,0,0,0,0,0,0,0,0,44,
scooby_state_91a87b|11|1 44,0,0,0,0,0,0,0,0,0,0,0,0,0,0,44,
scooby_state_91a87b|8|1 44,0,0,0,0,0,0,0,0,0,0,0,0,0,0,44,
scooby_state_90b59e|37|1 44,0,0,0,0,0,0,0,0,0,0,0,0,0,0,44,
scooby_state_90b59e|1|1 44,0,0,0,0,0,0,0,0,0,0,0,0,0,0,44,
scooby_state_90b5de|1|1 44,0,0,0,0,0,0,0,0,0,0,0,0,0,0,44,
scooby_state_90b5de|51|1 44,0,0,0,0,0,0,0,0,0,0,0,0,0,0,44,
scooby_state_91a87b|15|1 44,0,0,0,0,0,0,0,0,0,0,0,0,0,0,44,
scooby_state_90b59e|41|1 44,0,0,0,0,0,0,0,0,0,0,0,0,0,0,44,
scooby_state_90b59e|24|1 44,0,0,0,0,0,0,0,0,0,0,0,0,0,0,44,
scooby_state_90b59e|11|1 44,0,0,0,0,0,0,0,0,0,0,0,0,0,0,44,
scooby_state_90b59e|33|1 43,0,0,0,0,0,0,0,0,0,0,0,0,0,0,43,
scooby_state_90b571|58|1 43,0,0,0,0,0,0,0,0,0,0,0,0,0,0,43,
scooby_state_90b59e|34|1 43,0,0,0,0,0,0,0,0,0,0,0,0,0,0,43,
scooby_state_90b571|61|1 43,0,0,0,0,0,0,0,0,0,0,0,0,0,0,43,
scooby_state_91a7cf|24|1 43,0,0,0,0,0,0,0,0,0,0,0,0,0,0,43,
scooby_state_91a7cf|13|1 43,0,0,0,0,0,0,0,0,0,0,0,0,0,0,43,
scooby_state_90b571|57|1 43,0,0,0,0,0,0,0,0,0,0,0,0,0,0,43,
scooby_state_90b571|40|1 43,0,0,0,0,0,0,0,0,0,0,0,0,0,0,43,
scooby_state_90b59e|2|1 43,0,0,0,0,0,0,0,0,0,0,0,0,0,0,43,
scooby_state_91a87b|4|1 43,0,0,0,0,0,0,0,0,0,0,0,0,0,0,43,
scooby_state_91a7cf|53|1 43,0,0,0,0,0,0,0,0,0,0,0,0,0,0,43,
scooby_state_90b571|27|1 43,0,0,0,0,0,0,0,0,0,0,0,0,0,0,43,
scooby_state_90b59e|55|1 43,0,0,0,0,0,0,0,0,0,0,0,0,0,0,43,
scooby_state_90b59e|23|1 43,0,0,0,0,0,0,0,0,0,0,0,0,0,0,43,
scooby_state_91a7cf|5|1 43,0,0,0,0,0,0,0,0,0,0,0,0,0,0,43,
scooby_state_90b59e|59|1 43,0,0,0,0,0,0,0,0,0,0,0,0,0,0,43,
scooby_state_91a7cf|4|1 43,0,0,0,0,0,0,0,0,0,0,0,0,0,0,43,
scooby_state_90b571|11|1 43,0,0,0,0,0,0,0,0,0,0,0,0,0,0,43,
scooby_state_91a87b|3|1 43,0,0,0,0,0,0,0,0,0,0,0,0,0,0,43,
scooby_state_90b571|5|1 43,0,0,0,0,0,0,0,0,0,0,0,0,0,0,43,
scooby_state_90b59e|62|1 43,0,0,0,0,0,0,0,0,0,0,0,0,0,0,43,
scooby_state_90b5de|14|1 43,0,0,0,0,0,0,0,0,0,0,0,0,0,0,43,
scooby_state_90b59e|49|1 43,0,0,0,0,0,0,0,0,0,0,0,0,0,0,43,
scooby_state_91a7cf|57|1 43,0,0,0,0,0,0,0,0,0,0,0,0,0,0,43,
scooby_state_90b571|59|1 43,0,0,0,0,0,0,0,0,0,0,0,0,0,0,43,
scooby_state_90b59e|17|1 43,0,0,0,0,0,0,0,0,0,0,0,0,0,0,43,
scooby_state_90b571|41|1 43,0,0,0,0,0,0,0,0,0,0,0,0,0,0,43,
scooby_state_91a7cf|0|0 42,0,0,0,0,0,0,0,0,0,0,0,0,0,0,42,
scooby_state_91a7cf|29|1 42,0,0,0,0,0,0,0,0,0,0,0,0,0,0,42,
scooby_state_90b59e|38|1 42,0,0,0,0,0,0,0,0,0,0,0,0,0,0,42,
scooby_state_91a7cf|28|1 42,0,0,0,0,0,0,0,0,0,0,0,0,0,0,42,
scooby_state_90b59e|22|1 42,0,0,0,0,0,0,0,0,0,0,0,0,0,0,42,
scooby_state_91a7cf|55|1 42,0,0,0,0,0,0,0,0,0,0,0,0,0,0,42,
scooby_state_90b59e|27|1 42,0,0,0,0,0,0,0,0,0,0,0,0,0,0,42,
scooby_state_90b571|29|1 42,0,0,0,0,0,0,0,0,0,0,0,0,0,0,42,
scooby_state_91a7cf|15|1 42,0,0,0,0,0,0,0,0,0,0,0,0,0,0,42,
scooby_state_90b571|1|1 42,0,0,0,0,0,0,0,0,0,0,0,0,0,0,42,
scooby_state_91a7cf|51|1 42,0,0,0,0,0,0,0,0,0,0,0,0,0,0,42,
scooby_state_90b571|60|1 42,0,0,0,0,0,0,0,0,0,0,0,0,0,0,42,
scooby_state_90b59e|53|1 42,0,0,0,0,0,0,0,0,0,0,0,0,0,0,42,
scooby_state_90b59e|60|1 42,0,0,0,0,0,0,0,0,0,0,0,0,0,0,42,
scooby_state_91a7cf|8|1 42,0,0,0,0,0,0,0,0,0,0,0,0,0,0,42,
scooby_state_91a7cf|11|1 42,0,0,0,0,0,0,0,0,0,0,0,0,0,0,42,
scooby_state_90b571|21|1 42,0,0,0,0,0,0,0,0,0,0,0,0,0,0,42,
scooby_state_91a87b|2|1 42,0,0,0,0,0,0,0,0,0,0,0,0,0,0,42,
scooby_state_91a7cf|25|1 42,0,0,0,0,0,0,0,0,0,0,0,0,0,0,42,
scooby_state_90b571|26|1 42,0,0,0,0,0,0,0,0,0,0,0,0,0,0,42,
scooby_state_91a7cf|21|1 42,0,0,0,0,0,0,0,0,0,0,0,0,0,0,42,
scooby_state_91a87b|1|1 42,0,0,0,0,0,0,0,0,0,0,0,0,0,0,42,
scooby_state_91a7cf|61|1 42,0,0,0,0,0,0,0,0,0,0,0,0,0,0,42,
scooby_state_90b59e|8|1 42,0,0,0,0,0,0,0,0,0,0,0,0,0,0,42,
scooby_state_91a7cf|20|1 42,0,0,0,0,0,0,0,0,0,0,0,0,0,0,42,
scooby_state_90b571|25|1 42,0,0,0,0,0,0,0,0,0,0,0,0,0,0,42,
scooby_state_90b59e|63|1 42,0,0,0,0,0,0,0,0,0,0,0,0,0,0,42,
scooby_state_90b571|23|1 42,0,0,0,0,0,0,0,0,0,0,0,0,0,0,42,
scooby_state_90b571|50|1 42,0,0,0,0,0,0,0,0,0,0,0,0,0,0,42,
scooby_state_90b59e|36|1 41,0,0,0,0,0,0,0,0,0,0,0,0,0,0,41,
scooby_state_90b59e|20|1 41,0,0,0,0,0,0,0,0,0,0,0,0,0,0,41,
scooby_state_90b571|6|1 41,0,0,0,0,0,0,0,0,0,0,0,0,0,0,41,
scooby_state_90b59e|5|1 41,0,0,0,0,0,0,0,0,0,0,0,0,0,0,41,
scooby_state_91a7cf|1|1 41,0,0,0,0,0,0,0,0,0,0,0,0,0,0,41,
[...]
scooby_state_916ca7|37|1 1,0,0,0,0,0,0,0,0,0,0,0,0,0,0,1,
scooby_state_91a0b0|39|-5 1,0,0,0,0,0,0,0,0,0,0,0,0,0,0,1,
scooby_state_91a888|20|-5 1,0,0,0,0,0,0,0,0,0,0,0,0,0,0,1,
scooby_state_91a801|35|1 1,0,0,0,0,0,0,0,0,0,0,0,0,0,0,1,
scooby_state_916c8e|39|1 1,0,0,0,0,0,0,0,0,0,0,0,0,0,0,1,
scooby_state_91608f|55|1 1,0,0,0,0,0,0,0,0,0,0,0,0,0,0,1,
scooby_state_916e92|0|-48 1,0,0,0,0,0,0,0,0,0,0,0,0,0,0,1,
scooby_state_91a82a|17|5 1,0,0,0,0,0,0,0,0,0,0,0,0,0,0,1,
scooby_state_90b5ab|11|1 1,0,0,0,0,0,0,0,0,0,0,0,0,0,0,1,
scooby_state_90b5de|50|6 1,0,0,0,0,0,0,0,0,0,0,0,0,0,0,1,
scooby_state_916113|30|11 1,0,0,0,0,0,0,0,0,0,0,0,0,0,0,1,
scooby_state_916e7b|0|-19 1,0,0,0,0,0,0,0,0,0,0,0,0,0,0,1,
scooby_state_91a4b9|58|6 1,0,0,0,0,0,0,0,0,0,0,0,0,0,0,1,
scooby_state_91a8bb|20|7 1,0,0,0,0,0,0,0,0,0,0,0,0,0,0,1,
scooby_state_91a7cf|47|5 1,0,0,0,0,0,0,0,0,0,0,0,0,0,0,1,
scooby_state_916f82|62|1 1,0,0,0,0,0,0,0,0,0,0,0,0,0,0,1,
scooby_state_91a0a0|16|-5 1,0,0,0,0,0,0,0,0,0,0,0,0,0,0,1,
scooby_state_91a7cf|28|5 1,0,0,0,0,0,0,0,0,0,0,0,0,0,0,1,
scooby_state_91a7bb|15|-5 1,0,0,0,0,0,0,0,0,0,0,0,0,0,0,1,
scooby_state_916e92|0|-21 1,0,0,0,0,0,0,0,0,0,0,0,0,0,0,1,
scooby_state_9160fb|36|0 1,0,0,0,0,0,0,0,0,0,0,0,0,0,0,1,
scooby_state_91a0a0|59|6 1,0,0,0,0,0,0,0,0,0,0,0,0,0,0,1,
scooby_state_916e7b|40|11 1,0,0,0,0,0,0,0,0,0,0,0,0,0,0,1,
scooby_state_91a82a|33|-30 1,0,0,0,0,0,0,0,0,0,0,0,0,0,0,1,
scooby_state_90b597|39|5 1,0,0,0,0,0,0,0,0,0,0,0,0,0,0,1,
scooby_state_90b5fd|20|-5 1,0,0,0,0,0,0,0,0,0,0,0,0,0,0,1,
scooby_state_91a7bb|41|-4 1,0,0,0,0,0,0,0,0,0,0,0,0,0,0,1,
scooby_state_91a822|2|1 1,0,0,0,0,0,0,0,0,0,0,0,0,0,0,1,
scooby_state_91a846|2|1 1,0,0,0,0,0,0,0,0,0,0,0,0,0,0,1,
scooby_state_91a0a0|49|6 1,0,0,0,0,0,0,0,0,0,0,0,0,0,0,1,
scooby_state_91606d|63|11 1,0,0,0,0,0,0,0,0,0,0,0,0,0,0,1,
scooby_state_91606d|50|11 1,0,0,0,0,0,0,0,0,0,0,0,0,0,0,1,
scooby_state_916b70|5|0 1,0,0,0,0,0,0,0,0,0,0,0,0,0,0,1,
scooby_state_916b70|13|0 1,0,0,0,0,0,0,0,0,0,0,0,0,0,0,1,
scooby_state_91a0a6|15|-5 1,0,0,0,0,0,0,0,0,0,0,0,0,0,0,1,
scooby_state_90b844|33|1 1,0,0,0,0,0,0,0,0,0,0,0,0,0,0,1,
scooby_state_90b5c5|39|1 1,0,0,0,0,0,0,0,0,0,0,0,0,0,0,1,
scooby_state_91a888|7|-6 1,0,0,0,0,0,0,0,0,0,0,0,0,0,0,1,
scooby_state_91a822|27|1 1,0,0,0,0,0,0,0,0,0,0,0,0,0,0,1,
scooby_state_91a0c4|31|11 1,0,0,0,0,0,0,0,0,0,0,0,0,0,0,1,
scooby_state_91a8bb|39|7 1,0,0,0,0,0,0,0,0,0,0,0,0,0,0,1,
scooby_state_90b834|26|-16 1,0,0,0,0,0,0,0,0,0,0,0,0,0,0,1,
scooby_state_916b70|12|0 1,0,0,0,0,0,0,0,0,0,0,0,0,0,0,1,
scooby_state_91a4a6|18|6 1,0,0,0,0,0,0,0,0,0,0,0,0,0,0,1,
scooby_state_9160fb|31|11 1,0,0,0,0,0,0,0,0,0,0,0,0,0,0,1,
scooby_state_91a82a|46|5 1,0,0,0,0,0,0,0,0,0,0,0,0,0,0,1,
scooby_state_916b02|44|1 1,0,0,0,0,0,0,0,0,0,0,0,0,0,0,1,
scooby_state_91a846|62|1 1,0,0,0,0,0,0,0,0,0,0,0,0,0,0,1,
scooby_state_91a830|24|1 1,0,0,0,0,0,0,0,0,0,0,0,0,0,0,1,
scooby_state_91a87b|36|6 1,0,0,0,0,0,0,0,0,0,0,0,0,0,0,1,
scooby_state_90b5e3|32|-5 1,0,0,0,0,0,0,0,0,0,0,0,0,0,0,1,
scooby_state_90b010|7|1 1,0,0,0,0,0,0,0,0,0,0,0,0,0,0,1,
scooby_state_91a81d|30|6 1,0,0,0,0,0,0,0,0,0,0,0,0,0,0,1,
scooby_state_91a7a1|14|0 1,0,0,0,0,0,0,0,0,0,0,0,0,0,0,1,
scooby_state_91a0a0|61|1 1,0,0,0,0,0,0,0,0,0,0,0,0,0,0,1,
scooby_state_90b59e|8|6 1,0,0,0,0,0,0,0,0,0,0,0,0,0,0,1,
scooby_state_91a5c7|23|1 1,0,0,0,0,0,0,0,0,0,0,0,0,0,0,1,
scooby_state_90b59e|50|6 1,0,0,0,0,0,0,0,0,0,0,0,0,0,0,1,
scooby_state_9160fb|49|11 1,0,0,0,0,0,0,0,0,0,0,0,0,0,0,1,
scooby_state_91606d|34|11 1,0,0,0,0,0,0,0,0,0,0,0,0,0,0,1,
scooby_state_91a846|6|1 1,0,0,0,0,0,0,0,0,0,0,0,0,0,0,1,
scooby_state_90b5c5|16|1 1,0,0,0,0,0,0,0,0,0,0,0,0,0,0,1,
scooby_state_90b180|6|1 1,0,0,0,0,0,0,0,0,0,0,0,0,0,0,1,
scooby_state_91a8b6|32|0 1,0,0,0,0,0,0,0,0,0,0,0,0,0,0,1,
scooby_state_90b5f5|21|6 1,0,0,0,0,0,0,0,0,0,0,0,0,0,0,1,
scooby_state_91a8a1|17|1 1,0,0,0,0,0,0,0,0,0,0,0,0,0,0,1,
scooby_state_91a82a|0|-62 1,0,0,0,0,0,0,0,0,0,0,0,0,0,0,1,
scooby_state_916e92|0|-13 1,0,0,0,0,0,0,0,0,0,0,0,0,0,0,1,
scooby_state_91a0b6|44|-5 1,0,0,0,0,0,0,0,0,0,0,0,0,0,0,1,
scooby_state_916f73|0|-10 1,0,0,0,0,0,0,0,0,0,0,0,0,0,0,1,
scooby_state_90b5b0|56|1 1,0,0,0,0,0,0,0,0,0,0,0,0,0,0,1,
scooby_state_91a0a0|52|-5 1,0,0,0,0,0,0,0,0,0,0,0,0,0,0,1,
scooby_state_f36603|24|1 1,0,0,0,0,0,0,0,0,0,0,0,0,0,0,1,
scooby_state_91a0b0|58|-5 1,0,0,0,0,0,0,0,0,0,0,0,0,0,0,1,
scooby_state_90b5b0|59|1 1,0,0,0,0,0,0,0,0,0,0,0,0,0,0,1,
scooby_state_91a0c4|46|6 1,0,0,0,0,0,0,0,0,0,0,0,0,0,0,1,
scooby_state_9160d3|11|0 1,0,0,0,0,0,0,0,0,0,0,0,0,0,0,1,
scooby_state_91a82a|45|-18 1,0,0,0,0,0,0,0,0,0,0,0,0,0,0,1,
scooby_state_916e92|59|16 1,0,0,0,0,0,0,0,0,0,0,0,0,0,0,1,
scooby_state_90b5fd|53|-5 1,0,0,0,0,0,0,0,0,0,0,0,0,0,0,1,
scooby_state_91606d|39|11 1,0,0,0,0,0,0,0,0,0,0,0,0,0,0,1,
scooby_state_91a853|34|1 1,0,0,0,0,0,0,0,0,0,0,0,0,0,0,1,
scooby_state_91a82a|32|0 1,0,0,0,0,0,0,0,0,0,0,0,0,0,0,1,
scooby_state_916e7b|48|11 1,0,0,0,0,0,0,0,0,0,0,0,0,0,0,1,
scooby_state_91a888|13|-5 1,0,0,0,0,0,0,0,0,0,0,0,0,0,0,1,
scooby_state_91a687|26|1 1,0,0,0,0,0,0,0,0,0,0,0,0,0,0,1,
scooby_state_90b597|43|2 1,0,0,0,0,0,0,0,0,0,0,0,0,0,0,1,
scooby_state_91a87b|33|6 1,0,0,0,0,0,0,0,0,0,0,0,0,0,0,1,
scooby_state_91a7bb|15|5 1,0,0,0,0,0,0,0,0,0,0,0,0,0,0,1,
scooby_state_91a0ca|48|11 1,0,0,0,0,0,0,0,0,0,0,0,0,0,0,1,
scooby_state_90b597|6|3 1,0,0,0,0,0,0,0,0,0,0,0,0,0,0,1,
scooby_state_91a7a1|30|-4 1,0,0,0,0,0,0,0,0,0,0,0,0,0,0,1,
scooby_state_91a0c4|25|6 1,0,0,0,0,0,0,0,0,0,0,0,0,0,0,1,
scooby_state_91a7a1|57|1 1,0,0,0,0,0,0,0,0,0,0,0,0,0,0,1,
scooby_state_90b5e3|15|-5 1,0,0,0,0,0,0,0,0,0,0,0,0,0,0,1,
scooby_state_91a82a|54|-5 1,0,0,0,0,0,0,0,0,0,0,0,0,0,0,1,
scooby_state_91a0a0|4|0 1,0,0,0,0,0,0,0,0,0,0,0,0,0,0,1,
scooby_state_91a87b|0|-21 1,0,0,0,0,0,0,0,0,0,0,0,0,0,0,1,
scooby_state_91a0b0|0|0 1,0,0,0,0,0,0,0,0,0,0,0,0,0,0,1,
scooby_state_916b70|24|0 1,0,0,0,0,0,0,0,0,0,0,0,0,0,0,1,
scooby_state_91a7cf|17|6 1,0,0,0,0,0,0,0,0,0,0,0,0,0,0,1,
scooby_state_9160fb|12|11 1,0,0,0,0,0,0,0,0,0,0,0,0,0,0,1,
scooby_state_90b5f5|55|5 1,0,0,0,0,0,0,0,0,0,0,0,0,0,0,1,
scooby_state_91a89c|26|2 1,0,0,0,0,0,0,0,0,0,0,0,0,0,0,1,
scooby_state_91a830|17|1 1,0,0,0,0,0,0,0,0,0,0,0,0,0,0,1,
scooby_state_91a67f|27|3 1,0,0,0,0,0,0,0,0,0,0,0,0,0,0,1,
scooby_state_91a84e|61|6 1,0,0,0,0,0,0,0,0,0,0,0,0,0,0,1,
scooby_state_90b571|5|0 1,0,0,0,0,0,0,0,0,0,0,0,0,0,0,1,
scooby_state_90b531|6|1 1,0,0,0,0,0,0,0,0,0,0,0,0,0,0,1,
scooby_state_91a0b0|35|5 1,0,0,0,0,0,0,0,0,0,0,0,0,0,0,1,
scooby_state_91a869|33|6 1,0,0,0,0,0,0,0,0,0,0,0,0,0,0,1,
scooby_state_91a869|54|6 1,0,0,0,0,0,0,0,0,0,0,0,0,0,0,1,
scooby_state_91a822|50|1 1,0,0,0,0,0,0,0,0,0,0,0,0,0,0,1,
scooby_state_91a0b0|55|-5 1,0,0,0,0,0,0,0,0,0,0,0,0,0,0,1,
scooby_state_90b5c5|32|1 1,0,0,0,0,0,0,0,0,0,0,0,0,0,0,1,
scooby_state_91a0a6|50|-5 1,0,0,0,0,0,0,0,0,0,0,0,0,0,0,1,
scooby_state_90b5c5|33|1 1,0,0,0,0,0,0,0,0,0,0,0,0,0,0,1,
scooby_state_91a0c4|62|11 1,0,0,0,0,0,0,0,0,0,0,0,0,0,0,1,
scooby_state_91a869|17|0 1,0,0,0,0,0,0,0,0,0,0,0,0,0,0,1,
scooby_state_91a0a6|27|-5 1,0,0,0,0,0,0,0,0,0,0,0,0,0,0,1,
scooby_state_916b70|57|0 1,0,0,0,0,0,0,0,0,0,0,0,0,0,0,1,
scooby_state_91a7cf|29|6 1,0,0,0,0,0,0,0,0,0,0,0,0,0,0,1,
scooby_state_90b27d|34|0 1,0,0,0,0,0,0,0,0,0,0,0,0,0,0,1,
scooby_state_91a8b6|7|6 1,0,0,0,0,0,0,0,0,0,0,0,0,0,0,1,
scooby_state_91a505|20|1 1,0,0,0,0,0,0,0,0,0,0,0,0,0,0,1,
scooby_state_91a0b0|54|5 1,0,0,0,0,0,0,0,0,0,0,0,0,0,0,1,
scooby_state_91a87b|0|0 1,0,0,0,0,0,0,0,0,0,0,0,0,0,0,1,
scooby_state_916ba2|59|0 1,0,0,0,0,0,0,0,0,0,0,0,0,0,0,1,
scooby_state_916e60|25|16 1,0,0,0,0,0,0,0,0,0,0,0,0,0,0,1,
scooby_state_91a81d|31|0 1,0,0,0,0,0,0,0,0,0,0,0,0,0,0,1,
scooby_state_91a0c4|63|11 1,0,0,0,0,0,0,0,0,0,0,0,0,0,0,1,
scooby_state_91a81d|42|6 1,0,0,0,0,0,0,0,0,0,0,0,0,0,0,1,
scooby_state_91a795|2|1 1,0,0,0,0,0,0,0,0,0,0,0,0,0,0,1,
scooby_state_91a82a|8|6 1,0,0,0,0,0,0,0,0,0,0,0,0,0,0,1,
scooby_state_91a0a0|61|6 1,0,0,0,0,0,0,0,0,0,0,0,0,0,0,1,
scooby_state_f3608f|50|-5 1,0,0,0,0,0,0,0,0,0,0,0,0,0,0,1,
scooby_state_91a0ca|20|11 1,0,0,0,0,0,0,0,0,0,0,0,0,0,0,1,
scooby_state_91a0b6|16|-5 1,0,0,0,0,0,0,0,0,0,0,0,0,0,0,1,
scooby_state_91a841|7|6 1,0,0,0,0,0,0,0,0,0,0,0,0,0,0,1,
scooby_state_91a8a1|1|-2 1,0,0,0,0,0,0,0,0,0,0,0,0,0,0,1,
scooby_state_91a8b6|30|6 1,0,0,0,0,0,0,0,0,0,0,0,0,0,0,1,
scooby_state_91a8a1|5|-4 1,0,0,0,0,0,0,0,0,0,0,0,0,0,0,1,
scooby_state_91608f|54|1 1,0,0,0,0,0,0,0,0,0,0,0,0,0,0,1,
scooby_state_91a7bb|14|-1 1,0,0,0,0,0,0,0,0,0,0,0,0,0,0,1,
scooby_state_916e60|20|16 1,0,0,0,0,0,0,0,0,0,0,0,0,0,0,1,
scooby_state_916e7b|0|-41 1,0,0,0,0,0,0,0,0,0,0,0,0,0,0,1,
scooby_state_91a84e|7|6 1,0,0,0,0,0,0,0,0,0,0,0,0,0,0,1,
scooby_state_916e60|39|12 1,0,0,0,0,0,0,0,0,0,0,0,0,0,0,1,
scooby_state_91a89c|54|1 1,0,0,0,0,0,0,0,0,0,0,0,0,0,0,1,
scooby_state_90b5b0|12|1 1,0,0,0,0,0,0,0,0,0,0,0,0,0,0,1,
scooby_state_91a0a0|57|-5 1,0,0,0,0,0,0,0,0,0,0,0,0,0,0,1,
scooby_state_91a81d|49|6 1,0,0,0,0,0,0,0,0,0,0,0,0,0,0,1,
scooby_state_90b5c5|58|1 1,0,0,0,0,0,0,0,0,0,0,0,0,0,0,1,
scooby_state_90b5c5|28|1 1,0,0,0,0,0,0,0,0,0,0,0,0,0,0,1,
scooby_state_91a86f|63|1 1,0,0,0,0,0,0,0,0,0,0,0,0,0,0,1,
scooby_state_91a86f|41|1 1,0,0,0,0,0,0,0,0,0,0,0,0,0,0,1,
scooby_state_916e60|0|-30 1,0,0,0,0,0,0,0,0,0,0,0,0,0,0,1,
scooby_state_90b444|17|1 1,0,0,0,0,0,0,0,0,0,0,0,0,0,0,1,
scooby_state_91a0b0|14|5 1,0,0,0,0,0,0,0,0,0,0,0,0,0,0,1,
scooby_state_91a6c1|27|1 1,0,0,0,0,0,0,0,0,0,0,0,0,0,0,1,
scooby_state_9160fb|20|11 1,0,0,0,0,0,0,0,0,0,0,0,0,0,0,1,
scooby_state_91a82a|52|25 1,0,0,0,0,0,0,0,0,0,0,0,0,0,0,1,
scooby_state_916b86|30|0 1,0,0,0,0,0,0,0,0,0,0,0,0,0,0,1,
scooby_state_91a7bb|21|-3 1,0,0,0,0,0,0,0,0,0,0,0,0,0,0,1,
scooby_state_91a3c0|15|1 1,0,0,0,0,0,0,0,0,0,0,0,0,0,0,1,
scooby_state_90b531|29|1 1,0,0,0,0,0,0,0,0,0,0,0,0,0,0,1,
scooby_state_916e60|61|16 1,0,0,0,0,0,0,0,0,0,0,0,0,0,0,1,
scooby_state_90b571|46|6 1,0,0,0,0,0,0,0,0,0,0,0,0,0,0,1,
scooby_state_916ba2|39|0 1,0,0,0,0,0,0,0,0,0,0,0,0,0,0,1,
scooby_state_91a86f|14|1 1,0,0,0,0,0,0,0,0,0,0,0,0,0,0,1,
scooby_state_91a853|19|1 1,0,0,0,0,0,0,0,0,0,0,0,0,0,0,1,
scooby_state_916b86|57|0 1,0,0,0,0,0,0,0,0,0,0,0,0,0,0,1,
scooby_state_916b70|35|0 1,0,0,0,0,0,0,0,0,0,0,0,0,0,0,1,
scooby_state_91609c|62|0 1,0,0,0,0,0,0,0,0,0,0,0,0,0,0,1,
scooby_state_91a82a|30|3 1,0,0,0,0,0,0,0,0,0,0,0,0,0,0,1,
scooby_state_916e60|56|16 1,0,0,0,0,0,0,0,0,0,0,0,0,0,0,1,
scooby_state_91a4a6|6|6 1,0,0,0,0,0,0,0,0,0,0,0,0,0,0,1,
scooby_state_90b5fd|30|-5 1,0,0,0,0,0,0,0,0,0,0,0,0,0,0,1,
scooby_state_91a0c4|4|1 1,0,0,0,0,0,0,0,0,0,0,0,0,0,0,1,
scooby_state_91a87b|49|6 1,0,0,0,0,0,0,0,0,0,0,0,0,0,0,1,
scooby_state_1668c80|50|1 1,0,0,0,0,0,0,0,0,0,0,0,0,0,0,1,
scooby_state_f36298|7|0 1,0,0,0,0,0,0,0,0,0,0,0,0,0,0,1,
scooby_state_916ba2|36|0 1,0,0,0,0,0,0,0,0,0,0,0,0,0,0,1,
scooby_state_91a8b6|52|6 1,0,0,0,0,0,0,0,0,0,0,0,0,0,0,1,
scooby_state_916aae|63|35 1,0,0,0,0,0,0,0,0,0,0,0,0,0,0,1,
scooby_state_f36181|6|1 1,0,0,0,0,0,0,0,0,0,0,0,0,0,0,1,
scooby_state_9160fb|52|11 1,0,0,0,0,0,0,0,0,0,0,0,0,0,0,1,
scooby_state_90b240|9|1 1,0,0,0,0,0,0,0,0,0,0,0,0,0,0,1,
scooby_state_91a6ec|24|-4 1,0,0,0,0,0,0,0,0,0,0,0,0,0,0,1,
scooby_state_90b5de|19|6 1,0,0,0,0,0,0,0,0,0,0,0,0,0,0,1,
scooby_state_f36139|55|-1 1,0,0,0,0,0,0,0,0,0,0,0,0,0,0,1,
scooby_state_916e60|14|2 1,0,0,0,0,0,0,0,0,0,0,0,0,0,0,1,
scooby_state_90b5fd|41|-5 1,0,0,0,0,0,0,0,0,0,0,0,0,0,0,1,
scooby_state_91a82a|0|-27 1,0,0,0,0,0,0,0,0,0,0,0,0,0,0,1,
scooby_state_916382|14|1 1,0,0,0,0,0,0,0,0,0,0,0,0,0,0,1,
scooby_state_91a0b0|50|5 1,0,0,0,0,0,0,0,0,0,0,0,0,0,0,1,
scooby_state_916e7b|55|11 1,0,0,0,0,0,0,0,0,0,0,0,0,0,0,1,
scooby_state_91a87b|62|6 1,0,0,0,0,0,0,0,0,0,0,0,0,0,0,1,
scooby_state_916e92|0|-17 1,0,0,0,0,0,0,0,0,0,0,0,0,0,0,1,
scooby_state_91a816|8|-5 1,0,0,0,0,0,0,0,0,0,0,0,0,0,0,1,
scooby_state_91a003|0|-51 1,0,0,0,0,0,0,0,0,0,0,0,0,0,0,1,
scooby_state_91a822|10|1 1,0,0,0,0,0,0,0,0,0,0,0,0,0,0,1,
scooby_state_91a869|28|6 1,0,0,0,0,0,0,0,0,0,0,0,0,0,0,1,
scooby_state_91a7f0|14|6 1,0,0,0,0,0,0,0,0,0,0,0,0,0,0,1,
scooby_state_91a801|0|0 1,0,0,0,0,0,0,0,0,0,0,0,0,0,0,1,
scooby_state_91a82a|26|2 1,0,0,0,0,0,0,0,0,0,0,0,0,0,0,1,
scooby_state_91a82a|20|-43 1,0,0,0,0,0,0,0,0,0,0,0,0,0,0,1,
scooby_state_90b531|4|1 1,0,0,0,0,0,0,0,0,0,0,0,0,0,0,1,
scooby_state_916e92|14|12 1,0,0,0,0,0,0,0,0,0,0,0,0,0,0,1,
scooby_state_f365e1|54|-1 1,0,0,0,0,0,0,0,0,0,0,0,0,0,0,1,
scooby_state_9160d3|9|6 1,0,0,0,0,0,0,0,0,0,0,0,0,0,0,1,
scooby_state_90b531|9|1 1,0,0,0,0,0,0,0,0,0,0,0,0,0,0,1,
scooby_state_91a89c|46|1 1,0,0,0,0,0,0,0,0,0,0,0,0,0,0,1,
scooby_state_916ac2|34|0 1,0,0,0,0,0,0,0,0,0,0,0,0,0,0,1,
scooby_state_91a84e|4|0 1,0,0,0,0,0,0,0,0,0,0,0,0,0,0,1,
scooby_state_91a7a1|50|1 1,0,0,0,0,0,0,0,0,0,0,0,0,0,0,1,
scooby_state_916e60|17|16 1,0,0,0,0,0,0,0,0,0,0,0,0,0,0,1,
scooby_state_916c8e|20|1 1,0,0,0,0,0,0,0,0,0,0,0,0,0,0,1,
scooby_state_91a0b0|60|1 1,0,0,0,0,0,0,0,0,0,0,0,0,0,0,1,
scooby_state_916e60|59|15 1,0,0,0,0,0,0,0,0,0,0,0,0,0,0,1,
scooby_state_91a869|47|6 1,0,0,0,0,0,0,0,0,0,0,0,0,0,0,1,
scooby_state_91a87b|47|-16 1,0,0,0,0,0,0,0,0,0,0,0,0,0,0,1,
scooby_state_91a0c4|63|6 1,0,0,0,0,0,0,0,0,0,0,0,0,0,0,1,

scooby_action_0_deg_dist 0,11,0,0,0,0,0,0,0,0,0,0,0,0,0,0,
scooby_action_-6_deg_dist 0,38,0,0,0,0,0,0,0,0,0,0,0,0,0,0,
scooby_action_3_deg_dist 0,58,0,0,0,0,0,0,0,0,0,0,0,0,0,0,
scooby_action_32_deg_dist 0,15,0,0,0,0,0,0,0,0,0,0,0,0,0,0,
scooby_action_4_deg_dist 0,16,0,0,0,0,0,0,0,0,0,0,0,0,0,0,
scooby_action_1_deg_dist 0,5489,3269,0,8036,0,88918,0,0,0,0,0,0,0,0,0,
scooby_action_30_deg_dist 0,17,0,0,0,0,0,0,0,0,0,0,0,0,0,0,
scooby_action_5_deg_dist 0,13,0,0,0,0,0,0,0,0,0,0,0,0,0,0,
scooby_action_10_deg_dist 0,22,0,0,0,0,0,0,0,0,0,0,0,0,0,0,
scooby_action_-1_deg_dist 0,22,0,0,0,0,0,0,0,0,0,0,0,0,0,0,
scooby_action_23_deg_dist 0,17,0,0,0,0,0,0,0,0,0,0,0,0,0,0,
scooby_action_11_deg_dist 0,17,0,0,0,0,0,0,0,0,0,0,0,0,0,0,
scooby_action_12_deg_dist 0,15,0,0,0,0,0,0,0,0,0,0,0,0,0,0,
scooby_action_-3_deg_dist 0,12,0,0,0,0,0,0,0,0,0,0,0,0,0,0,
scooby_action_22_deg_dist 0,17,0,0,0,0,0,0,0,0,0,0,0,0,0,0,

scooby_track_called 106002
scooby_track_same_address 448
scooby_track_evict 105298

scooby_reward_demand_called 106002
scooby_reward_demand_pt_not_found 4772
scooby_reward_demand_pt_found 101230
scooby_reward_demand_pt_found_total 101230
scooby_reward_demand_has_reward 244
scooby_reward_train_called 2887
scooby_reward_assign_reward_called 105550
scooby_reward_no_pref 11
scooby_reward_incorrect 2876
scooby_reward_correct_untimely 93549
scooby_reward_correct_timely 7437
scooby_reward_out_of_bounds 1677
scooby_reward_tracker_hit 0

scooby_reward_none_low_bw 11
scooby_reward_none_high_bw 0
scooby_reward_incorrect_low_bw 2876
scooby_reward_incorrect_high_bw 0
scooby_reward_correct_untimely_low_bw 93549
scooby_reward_correct_untimely_high_bw 0
scooby_reward_correct_timely_low_bw 7437
scooby_reward_correct_timely_high_bw 0
scooby_reward_out_of_bounds_low_bw 1677
scooby_reward_out_of_bounds_high_bw 0
scooby_reward_tracker_hit_low_bw 0
scooby_reward_tracker_hit_high_bw 0

scooby_reward_1 0,2801,93506,7370,1623,0,
scooby_reward_3 0,11,27,3,4,0,
scooby_reward_4 0,5,6,4,1,0,
scooby_reward_5 0,2,5,6,0,0,
scooby_reward_10 0,4,1,11,5,0,
scooby_reward_11 0,2,2,7,6,0,
scooby_reward_12 0,2,1,9,3,0,
scooby_reward_22 0,2,0,9,6,0,
scooby_reward_23 0,1,1,7,8,0,
scooby_reward_30 0,1,0,5,11,0,
scooby_reward_32 0,2,0,6,7,0,
scooby_reward_-1 0,9,0,0,0,0,
scooby_reward_-3 0,2,0,0,2,0,
scooby_reward_-6 0,32,0,0,1,0,
scooby_reward_0 11,0,0,0,0,0,

scooby_train_called 105297
scooby_train_compute_reward 2887

scooby_register_fill_called 92161
scooby_register_fill_set 7759
scooby_register_fill_set_total 7759

scooby_register_prefetch_hit_called 373237
scooby_register_prefetch_hit_set 94754
scooby_register_prefetch_hit_set_total 94754

scooby_pref_issue_scooby 541882

learning_engine_featurewise.action.called 106002
learning_engine_featurewise.action.explore 201
learning_engine_featurewise.action.exploit 105801
learning_engine_featurewise.action.fallback 0
learning_engine_featurewise.action.dyn_fallback_saved_bw 0
learning_engine_featurewise.action.dyn_fallback_saved_bw_acc 50
learning_engine_featurewise.action.index_1_explored 14
learning_engine_featurewise.action.index_1_exploited 105698
learning_engine_featurewise.action.index_3_explored 14
learning_engine_featurewise.action.index_3_exploited 44
learning_engine_featurewise.action.index_4_explored 13
learning_engine_featurewise.action.index_4_exploited 3
learning_engine_featurewise.action.index_5_explored 11
learning_engine_featurewise.action.index_5_exploited 2
learning_engine_featurewise.action.index_10_explored 20
learning_engine_featurewise.action.index_10_exploited 2
learning_engine_featurewise.action.index_11_explored 15
learning_engine_featurewise.action.index_11_exploited 2
learning_engine_featurewise.action.index_12_explored 13
learning_engine_featurewise.action.index_12_exploited 2
learning_engine_featurewise.action.index_22_explored 15
learning_engine_featurewise.action.index_22_exploited 2
learning_engine_featurewise.action.index_23_explored 15
learning_engine_featurewise.action.index_23_exploited 2
learning_engine_featurewise.action.index_30_explored 15
learning_engine_featurewise.action.index_30_exploited 2
learning_engine_featurewise.action.index_32_explored 13
learning_engine_featurewise.action.index_32_exploited 2
learning_engine_featurewise.action.index_-1_explored 14
learning_engine_featurewise.action.index_-1_exploited 8
learning_engine_featurewise.action.index_-3_explored 10
learning_engine_featurewise.action.index_-3_exploited 2
learning_engine_featurewise.action.index_-6_explored 8
learning_engine_featurewise.action.index_-6_exploited 30
learning_engine_featurewise.action.index_0_explored 11
learning_engine_featurewise.action.index_0_exploited 0
learning_engine_featurewise.learn.called 105297
learning_engine_featurewise.learn.su_skip_PC 0
learning_engine_featurewise.learn.su_skip_PC_Delta 0

learning_engine_featurewise.q_value_histogram.bucket_0 0
learning_engine_featurewise.q_value_histogram.bucket_1 0
learning_engine_featurewise.q_value_histogram.bucket_2 0
learning_engine_featurewise.q_value_histogram.bucket_3 0
learning_engine_featurewise.q_value_histogram.bucket_4 1726
learning_engine_featurewise.q_value_histogram.bucket_5 2209
learning_engine_featurewise.q_value_histogram.bucket_6 101866
learning_engine_featurewise.q_value_histogram.bucket_7 0

learning_engine_featurewise.consensus.total 105801
learning_engine_featurewise.consensus.feature_align_PC 105398
learning_engine_featurewise.consensus.feature_align_PC_ratio 1.00
learning_engine_featurewise.consensus.feature_align_PC_Delta 105680
learning_engine_featurewise.consensus.feature_align_PC_Delta_ratio 1.00
learning_engine_featurewise.consensus.feature_align_all 105277
learning_engine_featurewise.consensus.feature_align_all_ratio 1.00

learning_engine_featurewise.feature_PC_min_weight 1000000.00000000
learning_engine_featurewise.feature_PC_max_weight 0.00000000
learning_engine_featurewise.feature_PC_Delta_min_weight 1000000.00000000
learning_engine_featurewise.feature_PC_Delta_max_weight 0.00000000
unique_pcs 334
unique_pages 1553
unique_trigger_pcs 103
total_bitmaps_seen 0
unique_bitmaps_seen 0

scooby_bw_epochs 53251
scooby_bw_level_0 44775
scooby_bw_level_1 3354
scooby_bw_level_2 2764
scooby_bw_level_3 2358

scooby_ipc_epochs 0
scooby_ipc_level_0 0
scooby_ipc_level_1 0
scooby_ipc_level_2 0
scooby_ipc_level_3 0

scooby_cache_acc_epochs 13195
scooby_cache_acc_level_0 924
scooby_cache_acc_level_1 565
scooby_cache_acc_level_2 808
scooby_cache_acc_level_3 802
scooby_cache_acc_level_4 1282
scooby_cache_acc_level_5 892
scooby_cache_acc_level_6 974
scooby_cache_acc_level_7 1169
scooby_cache_acc_level_8 1350
scooby_cache_acc_level_9 4429

Channel_0_RQ_row_buffer_hit 42545
Channel_0_RQ_row_buffer_miss 33744
Channel_0_WQ_row_buffer_hit 3841
Channel_0_WQ_row_buffer_miss 16331
Channel_0_WQ_full 0
Channel_0_dbus_congested 33395

avg_congested_cycle 9

DRAM_bw_pochs 53251
DRAM_bw_level_0 44775
DRAM_bw_level_1 3354
DRAM_bw_level_2 2764
DRAM_bw_level_3 2358
