Original cmd-> /cluster/home/vlnitu/CA-Lab4-24-vlnitu/Pythia/bin/perceptron-no-multi-no-ship-1core --warmup_instructions=1000000 --simulation_instructions=10000000 --l2c_prefetcher_types=scooby --config=/cluster/home/vlnitu/CA-Lab4-24-vlnitu/Pythia/config/pythia.ini --mail-type=BEGIN,END  -traces /cluster/home/vlnitu/CA-Lab4-24-vlnitu/Pythia/traces/623.xalancbmk_s-10B.champsimtrace.xz
*************************************************
   ChampSim Multicore Out-of-Order Simulator
   Last compiled: Nov 19 2024 20:10:11
*************************************************
parsing config file: /cluster/home/vlnitu/CA-Lab4-24-vlnitu/Pythia/config/pythia.ini
unable to parse section: , name: mail-type, value: BEGIN,END

trace_0 /cluster/home/vlnitu/CA-Lab4-24-vlnitu/Pythia/traces/623.xalancbmk_s-10B.champsimtrace.xz
adding L2C_PREFETCHER: Scooby
Initialize SHIP state
warmup_instructions 1000000
simulation_instructions 10000000
champsim_seed 163
measure_ipc 0
measure_ipc_epoch 1000
measure_dram_bw 1
measure_dram_bw_epoch 256
measure_cache_acc 1
measure_cache_acc_epoch 1024
l1d_perfect 0
l2c_perfect 0
llc_perfect 0
l1d_semi_perfect 0
l2c_semi_perfect 0
llc_semi_perfect 0
semi_perfect_cache_page_buffer_size 64

num_cpus 1
cpu_freq 4000
dram_io_freq 2400
page_size 4096
block_size 64
max_read_per_cycle 8
max_fill_per_cycle 1
dram_channels 1
log2_dram_channels 0
dram_ranks 1
dram_banks 8
dram_rows 65536
dram_columns 128
dram_row_size 8
dram_size 4096
dram_pages 1048576

fetch_width 6
decode_width 6
exec_width 4
lq_width 2
sq_width 2
retire_width 4
scheduler_size 128
branch_mispredict_penalty 20
rob_size 256
lq_size 72
sq_size 56
num_instr_destinations_sparc 4
num_instr_destinations 2
num_instr_sources 4

itlb_set 16
itlb_way 8
itlb_rq_size 16
itlb_wq_size 16
itlb_pq_size 0
itlb_mshr_size 8
itlb_latency 1

dtlb_set 16
dtlb_way 4
dtlb_rq_size 16
dtlb_wq_size 16
dtlb_pq_size 0
dtlb_mshr_size 8
dtlb_latency 1

stlb_set 128
stlb_way 12
stlb_rq_size 32
stlb_wq_size 32
stlb_pq_size 0
stlb_mshr_size 16
stlb_latency 8

l1i_size 32
l1i_set 64
l1i_way 8
l1i_rq_size 64
l1i_wq_size 64
l1i_pq_size 8
l1i_mshr_size 8
l1i_latency 1

l1d_size 32
l1d_set 64
l1d_way 8
l1d_rq_size 64
l1d_wq_size 64
l1d_pq_size 8
l1d_mshr_size 16
l1d_latency 4

l2c_size 256
l2c_set 512
l2c_way 8
l2c_rq_size 32
l2c_wq_size 32
l2c_pq_size 32
l2c_mshr_size 32
l2c_latency 10

llc_size 2048
llc_set 2048
llc_way 16
llc_rq_size 32
llc_wq_size 32
llc_pq_size 32
llc_mshr_size 64
llc_latency 20

dram_channel_width 8
dram_wq_size 64
dram_rq_size 64
tRP 15
tRCD 15
tCAS 12.5
dram_dbus_turn_around_time 30
dram_write_high_wm 56
dram_write_low_wm 48
min_dram_writes_per_switch 16
dram_mtps 2400
dram_dbus_return_time 13

scooby_alpha 0.0065088
scooby_gamma 0.556301
scooby_epsilon 0.00182284
scooby_state_num_bits 10
scooby_max_states 1024
scooby_seed 200
scooby_policy EGreedy
scooby_learning_type SARSA
scooby_actions 1,3,4,5,10,11,12,22,23,30,32,-1,-3,-6,0,
scooby_max_actions 15
scooby_pt_size 256
scooby_st_size 64
scooby_max_pcs 5
scooby_max_offsets 5
scooby_max_deltas 5
scooby_reward_none -4
scooby_reward_incorrect -8
scooby_reward_correct_untimely 12
scooby_reward_correct_timely 20
scooby_brain_zero_init 0
scooby_enable_reward_all 0
scooby_enable_track_multiple 0
scooby_enable_reward_out_of_bounds 1
scooby_reward_out_of_bounds -12
scooby_state_type 1
scooby_state_hash_type 11
scooby_access_debug 0
scooby_print_access_debug 0
scooby_print_access_debug_pc deadbeef
scooby_print_access_debug_pc_count 0
scooby_print_trace 0
scooby_enable_state_action_stats 1
scooby_enable_reward_tracker_hit 0
scooby_reward_tracker_hit -2
scooby_enable_featurewise_engine 1
scooby_pref_degree 1
scooby_enable_dyn_degree 1
scooby_max_to_avg_q_thresholds 0.5,1,2,
scooby_dyn_degrees 1,2,4,4,
scooby_multi_deg_select_type 2
scooby_last_pref_offset_conf_thresholds 1,3,8,
scooby_dyn_degrees_type2 1,2,4,6,
scooby_action_tracker_size 2
scooby_high_bw_thresh 4
scooby_enable_hbw_reward 1
scooby_reward_hbw_correct_timely 20
scooby_reward_hbw_correct_untimely 12
scooby_reward_hbw_incorrect -14
scooby_reward_hbw_none -2
scooby_reward_hbw_out_of_bounds -12
scooby_reward_hbw_tracker_hit -2
scooby_last_pref_offset_conf_thresholds_hbw 1,3,8,
scooby_dyn_degrees_type2_hbw 1,2,4,6,

le_enable_trace 0
le_trace_interval 0
le_trace_file_name 
le_trace_state 0
le_enable_score_plot 0
le_plot_file_name 
le_plot_actions 
le_enable_action_trace 0
le_action_trace_interval 0
le_action_trace_name 
le_enable_action_plot 0

le_featurewise_active_features PC, PC_Delta
le_featurewise_num_tilings 3,3,
le_featurewise_num_tiles 128,128,
le_featurewise_hash_types 2,2,
le_featurewise_enable_tiling_offset 1,1,
le_featurewise_max_q_thresh 0.5
le_featurewise_enable_action_fallback 1
le_featurewise_feature_weights 1,1,
le_featurewise_enable_dynamic_weight 0
le_featurewise_weight_gradient 0.001
le_featurewise_disable_adjust_weight_all_features_align 1
le_featurewise_selective_update 0
le_featurewise_pooling_type 2
le_featurewise_enable_dyn_action_fallback 1
le_featurewise_bw_acc_check_level 1
le_featurewise_acc_thresh 2
le_featurewise_enable_trace 0
le_featurewise_trace_feature_type 0
le_featurewise_trace_feature 
le_featurewise_trace_interval 0
le_featurewise_trace_record_count 0
le_featurewise_trace_file_name 
le_featurewise_enable_score_plot 0
le_featurewise_plot_actions 
le_featurewise_plot_file_name 


Heartbeat CPU  0 instructions:    1000001 cycles:     605813 heartbeat IPC: 1.65068 cumulative IPC: 1.65068 (Simulation time: 0 hr 0 min 2 sec) 

Warmup complete CPU  0 instructions:    1000001 cycles:     605813 (Simulation time: 0 hr 0 min 2 sec) 

Heartbeat CPU  0 instructions:    2000002 cycles:    4271882 heartbeat IPC: 0.27277 cumulative IPC: 0.27277 (Simulation time: 0 hr 0 min 4 sec) 
Heartbeat CPU  0 instructions:    3000002 cycles:    6710923 heartbeat IPC: 0.41000 cumulative IPC: 0.32759 (Simulation time: 0 hr 0 min 6 sec) 
Heartbeat CPU  0 instructions:    4000000 cycles:    9250660 heartbeat IPC: 0.39374 cumulative IPC: 0.34703 (Simulation time: 0 hr 0 min 8 sec) 
Heartbeat CPU  0 instructions:    5000001 cycles:   12756710 heartbeat IPC: 0.28522 cumulative IPC: 0.32919 (Simulation time: 0 hr 0 min 11 sec) 
Heartbeat CPU  0 instructions:    6000000 cycles:   15138686 heartbeat IPC: 0.41982 cumulative IPC: 0.34405 (Simulation time: 0 hr 0 min 13 sec) 
Heartbeat CPU  0 instructions:    7000001 cycles:   17734691 heartbeat IPC: 0.38521 cumulative IPC: 0.35029 (Simulation time: 0 hr 0 min 15 sec) 
Heartbeat CPU  0 instructions:    8000000 cycles:   21164782 heartbeat IPC: 0.29154 cumulative IPC: 0.34048 (Simulation time: 0 hr 0 min 17 sec) 
Heartbeat CPU  0 instructions:    9000000 cycles:   23903609 heartbeat IPC: 0.36512 cumulative IPC: 0.34338 (Simulation time: 0 hr 0 min 19 sec) 
Heartbeat CPU  0 instructions:   10000001 cycles:   27282933 heartbeat IPC: 0.29592 cumulative IPC: 0.33737 (Simulation time: 0 hr 0 min 21 sec) 
Heartbeat CPU  0 instructions:   11000003 cycles:   29991305 heartbeat IPC: 0.36923 cumulative IPC: 0.34030 (Simulation time: 0 hr 0 min 24 sec) 
Finished CPU 0 instructions: 10000002 cycles: 29385492 cumulative IPC: 0.34030 (Simulation time: 0 hr 0 min 24 sec) 

ChampSim completed all CPUs

[ROI Statistics]
Core_0_instructions 10000002
Core_0_cycles 29385492
Core_0_IPC 0.34030

Core_0_branch_prediction_accuracy 99.15714
Core_0_branch_MPKI 2.03060
Core_0_average_ROB_occupancy_at_mispredict 112.53053

Core_0_L1D_total_access 2118211
Core_0_L1D_total_hit 1827639
Core_0_L1D_total_miss 290572
Core_0_L1D_loads 1724769
Core_0_L1D_load_hit 1439587
Core_0_L1D_load_miss 285182
Core_0_L1D_RFOs 393442
Core_0_L1D_RFO_hit 388052
Core_0_L1D_RFO_miss 5390
Core_0_L1D_prefetches 0
Core_0_L1D_prefetch_hit 0
Core_0_L1D_prefetch_miss 0
Core_0_L1D_writebacks 0
Core_0_L1D_writeback_hit 0
Core_0_L1D_writeback_miss 0
Core_0_L1D_prefetch_requested 0
Core_0_L1D_prefetch_dropped 0
Core_0_L1D_prefetch_issued 0
Core_0_L1D_prefetch_filled 0
Core_0_L1D_prefetch_useful 0
Core_0_L1D_prefetch_useless 0
Core_0_L1D_prefetch_late 0
Core_0_L1D_average_miss_latency 91.17915

Core_0_L1D_rq_access 2924501
Core_0_L1D_rq_forward 0
Core_0_L1D_rq_merged 1120321
Core_0_L1D_rq_to_cache 1804177
Core_0_L1D_rq_full 0

Core_0_L1D_wq_access 411928
Core_0_L1D_wq_forward 3
Core_0_L1D_wq_merged 1169
Core_0_L1D_wq_to_cache 410759
Core_0_L1D_wq_full 2234

Core_0_L1D_pq_access 0
Core_0_L1D_pq_forward 0
Core_0_L1D_pq_merged 0
Core_0_L1D_pq_to_cache 0
Core_0_L1D_pq_full 0

Core_0_L1D_acc_epochs 24935
Core_0_L1D_acc_level_0 24935
Core_0_L1D_acc_level_1 0
Core_0_L1D_acc_level_2 0
Core_0_L1D_acc_level_3 0
Core_0_L1D_acc_level_4 0
Core_0_L1D_acc_level_5 0
Core_0_L1D_acc_level_6 0
Core_0_L1D_acc_level_7 0
Core_0_L1D_acc_level_8 0
Core_0_L1D_acc_level_9 0

Core_0_L1I_total_access 3116589
Core_0_L1I_total_hit 3084811
Core_0_L1I_total_miss 31778
Core_0_L1I_loads 3116589
Core_0_L1I_load_hit 3084811
Core_0_L1I_load_miss 31778
Core_0_L1I_RFOs 0
Core_0_L1I_RFO_hit 0
Core_0_L1I_RFO_miss 0
Core_0_L1I_prefetches 0
Core_0_L1I_prefetch_hit 0
Core_0_L1I_prefetch_miss 0
Core_0_L1I_writebacks 0
Core_0_L1I_writeback_hit 0
Core_0_L1I_writeback_miss 0
Core_0_L1I_prefetch_requested 0
Core_0_L1I_prefetch_dropped 0
Core_0_L1I_prefetch_issued 0
Core_0_L1I_prefetch_filled 0
Core_0_L1I_prefetch_useful 0
Core_0_L1I_prefetch_useless 0
Core_0_L1I_prefetch_late 0
Core_0_L1I_average_miss_latency 22.77053

Core_0_L1I_rq_access 10000229
Core_0_L1I_rq_forward 0
Core_0_L1I_rq_merged 6864812
Core_0_L1I_rq_to_cache 3135417
Core_0_L1I_rq_full 0

Core_0_L1I_wq_access 0
Core_0_L1I_wq_forward 0
Core_0_L1I_wq_merged 0
Core_0_L1I_wq_to_cache 0
Core_0_L1I_wq_full 0

Core_0_L1I_pq_access 0
Core_0_L1I_pq_forward 0
Core_0_L1I_pq_merged 0
Core_0_L1I_pq_to_cache 0
Core_0_L1I_pq_full 0

Core_0_L1I_acc_epochs 24935
Core_0_L1I_acc_level_0 24935
Core_0_L1I_acc_level_1 0
Core_0_L1I_acc_level_2 0
Core_0_L1I_acc_level_3 0
Core_0_L1I_acc_level_4 0
Core_0_L1I_acc_level_5 0
Core_0_L1I_acc_level_6 0
Core_0_L1I_acc_level_7 0
Core_0_L1I_acc_level_8 0
Core_0_L1I_acc_level_9 0

Core_0_L2C_total_access 621603
Core_0_L2C_total_hit 219266
Core_0_L2C_total_miss 402337
Core_0_L2C_loads 316960
Core_0_L2C_load_hit 101640
Core_0_L2C_load_miss 215320
Core_0_L2C_RFOs 5390
Core_0_L2C_RFO_hit 2236
Core_0_L2C_RFO_miss 3154
Core_0_L2C_prefetches 287063
Core_0_L2C_prefetch_hit 103483
Core_0_L2C_prefetch_miss 183580
Core_0_L2C_writebacks 12190
Core_0_L2C_writeback_hit 11907
Core_0_L2C_writeback_miss 283
Core_0_L2C_prefetch_requested 371635
Core_0_L2C_prefetch_dropped 57
Core_0_L2C_prefetch_issued 371578
Core_0_L2C_prefetch_filled 201000
Core_0_L2C_prefetch_useful 72282
Core_0_L2C_prefetch_useless 127483
Core_0_L2C_prefetch_late 19940
Core_0_L2C_average_miss_latency 97.46772

Core_0_L2C_rq_access 322351
Core_0_L2C_rq_forward 0
Core_0_L2C_rq_merged 0
Core_0_L2C_rq_to_cache 322351
Core_0_L2C_rq_full 0

Core_0_L2C_wq_access 12190
Core_0_L2C_wq_forward 0
Core_0_L2C_wq_merged 0
Core_0_L2C_wq_to_cache 12190
Core_0_L2C_wq_full 0

Core_0_L2C_pq_access 371578
Core_0_L2C_pq_forward 0
Core_0_L2C_pq_merged 6581
Core_0_L2C_pq_to_cache 364997
Core_0_L2C_pq_full 0

Core_0_L2C_acc_epochs 24935
Core_0_L2C_acc_level_0 2339
Core_0_L2C_acc_level_1 3140
Core_0_L2C_acc_level_2 5995
Core_0_L2C_acc_level_3 6011
Core_0_L2C_acc_level_4 3385
Core_0_L2C_acc_level_5 1913
Core_0_L2C_acc_level_6 992
Core_0_L2C_acc_level_7 539
Core_0_L2C_acc_level_8 259
Core_0_L2C_acc_level_9 362

Core_0_LLC_total_access 409354
Core_0_LLC_total_hit 184408
Core_0_LLC_total_miss 224946
Core_0_LLC_loads 196065
Core_0_LLC_load_hit 89460
Core_0_LLC_load_miss 106605
Core_0_LLC_RFOs 3134
Core_0_LLC_RFO_hit 1524
Core_0_LLC_RFO_miss 1610
Core_0_LLC_prefetches 202855
Core_0_LLC_prefetch_hit 86353
Core_0_LLC_prefetch_miss 116502
Core_0_LLC_writebacks 7300
Core_0_LLC_writeback_hit 7071
Core_0_LLC_writeback_miss 229
Core_0_LLC_prefetch_requested 0
Core_0_LLC_prefetch_dropped 0
Core_0_LLC_prefetch_issued 0
Core_0_LLC_prefetch_filled 133482
Core_0_LLC_prefetch_useful 1802
Core_0_LLC_prefetch_useless 117757
Core_0_LLC_prefetch_late 0
Core_0_LLC_average_miss_latency 121.11346

Core_0_LLC_rq_access 199200
Core_0_LLC_rq_forward 0
Core_0_LLC_rq_merged 0
Core_0_LLC_rq_to_cache 199200
Core_0_LLC_rq_full 0

Core_0_LLC_wq_access 7300
Core_0_LLC_wq_forward 0
Core_0_LLC_wq_merged 0
Core_0_LLC_wq_to_cache 7300
Core_0_LLC_wq_full 0

Core_0_LLC_pq_access 220942
Core_0_LLC_pq_forward 0
Core_0_LLC_pq_merged 0
Core_0_LLC_pq_to_cache 220942
Core_0_LLC_pq_full 0

Core_0_LLC_acc_epochs 29289
Core_0_LLC_acc_level_0 27809
Core_0_LLC_acc_level_1 682
Core_0_LLC_acc_level_2 354
Core_0_LLC_acc_level_3 119
Core_0_LLC_acc_level_4 38
Core_0_LLC_acc_level_5 178
Core_0_LLC_acc_level_6 26
Core_0_LLC_acc_level_7 18
Core_0_LLC_acc_level_8 8
Core_0_LLC_acc_level_9 57

Core_0_major_page_fault 0
Core_0_minor_page_fault 10711

scooby_st_lookup 348522
scooby_st_hit 275985
scooby_st_evict 72473
scooby_st_insert 72537
scooby_st_streaming 0

scooby_predict_called 348522
scooby_predict_out_of_bounds 10685
scooby_predict_action_1 195853
scooby_predict_issue_action_1 161015
scooby_predict_hit_action_1 34838
scooby_predict_out_of_bounds_action_1 2843
scooby_predict_action_3 93329
scooby_predict_issue_action_3 85076
scooby_predict_hit_action_3 8253
scooby_predict_out_of_bounds_action_3 3997
scooby_predict_action_4 4791
scooby_predict_issue_action_4 2630
scooby_predict_hit_action_4 2161
scooby_predict_out_of_bounds_action_4 158
scooby_predict_action_5 3531
scooby_predict_issue_action_5 3161
scooby_predict_hit_action_5 370
scooby_predict_out_of_bounds_action_5 266
scooby_predict_action_10 1175
scooby_predict_issue_action_10 1112
scooby_predict_hit_action_10 63
scooby_predict_out_of_bounds_action_10 181
scooby_predict_action_11 2274
scooby_predict_issue_action_11 2131
scooby_predict_hit_action_11 143
scooby_predict_out_of_bounds_action_11 418
scooby_predict_action_12 1155
scooby_predict_issue_action_12 1086
scooby_predict_hit_action_12 69
scooby_predict_out_of_bounds_action_12 226
scooby_predict_action_22 748
scooby_predict_issue_action_22 720
scooby_predict_hit_action_22 28
scooby_predict_out_of_bounds_action_22 399
scooby_predict_action_23 827
scooby_predict_issue_action_23 782
scooby_predict_hit_action_23 45
scooby_predict_out_of_bounds_action_23 402
scooby_predict_action_30 539
scooby_predict_issue_action_30 525
scooby_predict_hit_action_30 14
scooby_predict_out_of_bounds_action_30 466
scooby_predict_action_32 576
scooby_predict_issue_action_32 558
scooby_predict_hit_action_32 18
scooby_predict_out_of_bounds_action_32 502
scooby_predict_action_-1 3847
scooby_predict_issue_action_-1 1712
scooby_predict_hit_action_-1 2135
scooby_predict_out_of_bounds_action_-1 41
scooby_predict_action_-3 17056
scooby_predict_issue_action_-3 15850
scooby_predict_hit_action_-3 1206
scooby_predict_out_of_bounds_action_-3 647
scooby_predict_action_-6 1230
scooby_predict_issue_action_-6 1071
scooby_predict_hit_action_-6 159
scooby_predict_out_of_bounds_action_-6 139
scooby_predict_action_0 10906
scooby_predict_issue_action_0 0
scooby_predict_hit_action_0 0
scooby_predict_out_of_bounds_action_0 0
scooby_predict_multi_deg_called 44067
scooby_predict_predicted 371635
scooby_predict_multi_deg 94206
scooby_predict_multi_deg_2 42844
scooby_predict_multi_deg_3 19805
scooby_predict_multi_deg_4 19122
scooby_predict_multi_deg_5 6311
scooby_predict_multi_deg_6 6124
scooby_predict_multi_deg_7 0
scooby_predict_multi_deg_8 0
scooby_predict_multi_deg_9 0
scooby_predict_multi_deg_10 0
scooby_predict_multi_deg_11 0
scooby_predict_multi_deg_12 0
scooby_predict_multi_deg_13 0
scooby_predict_multi_deg_14 0
scooby_predict_multi_deg_15 0
scooby_predict_multi_deg_16 0

scooby_selected_deg_1 233362
scooby_selected_deg_2 22890
scooby_selected_deg_3 0
scooby_selected_deg_4 13859
scooby_selected_deg_5 0
scooby_selected_deg_6 7318
scooby_selected_deg_7 0
scooby_selected_deg_8 0
scooby_selected_deg_9 0
scooby_selected_deg_10 0
scooby_selected_deg_11 0
scooby_selected_deg_12 0
scooby_selected_deg_13 0
scooby_selected_deg_14 0
scooby_selected_deg_15 0
scooby_selected_deg_16 0

scooby_state_59cdbf|0|0 644,0,0,0,0,1,0,0,0,0,0,0,0,0,0,645,
scooby_state_59cdf2|0|0 32,361,19,19,14,10,10,7,14,8,7,19,7,7,19,553,
scooby_state_59cdf2|1|1 9,530,1,2,1,1,0,1,1,0,0,0,3,1,2,552,
scooby_state_59cd9b|1|0 2,535,0,0,0,0,1,0,0,0,0,0,0,0,0,538,
scooby_state_59cdf2|36|1 8,511,0,2,1,0,0,0,1,0,1,2,3,1,3,533,
scooby_state_59cd9b|0|0 1,527,0,0,0,0,0,0,0,0,0,0,0,0,0,528,
scooby_state_59cdf2|8|1 10,488,2,0,0,3,3,2,0,4,0,4,2,1,0,519,
scooby_state_59cd9b|2|0 0,511,0,0,0,0,0,0,0,0,0,0,0,0,0,511,
scooby_state_59cd9b|14|0 2,492,0,0,0,0,0,0,0,0,0,0,0,0,1,495,
scooby_state_59cdf2|55|1 4,478,2,1,0,2,0,1,0,0,1,1,2,1,0,493,
scooby_state_59cd9b|52|0 1,486,0,0,0,0,0,0,0,0,0,0,0,1,0,488,
scooby_state_59cdf2|17|1 6,459,2,2,1,1,1,0,0,2,0,2,1,1,3,481,
scooby_state_59cdf2|40|1 2,460,2,0,1,2,0,2,1,0,1,0,6,0,1,478,
scooby_state_59cdf2|29|1 7,450,2,1,1,0,1,1,0,2,0,3,5,2,2,477,
scooby_state_59cdf2|12|1 7,450,1,1,2,0,0,1,0,0,0,1,5,3,2,473,
scooby_state_59cdf2|50|1 9,447,2,2,0,0,3,1,1,1,0,1,1,2,1,471,
scooby_state_59cdf2|4|1 7,439,2,2,0,0,0,0,1,0,2,3,2,4,3,465,
scooby_state_59cdf2|35|1 5,443,0,3,0,1,0,0,0,2,1,3,0,1,5,464,
scooby_state_59cdf2|28|1 6,443,1,2,1,1,0,0,1,2,0,2,2,0,3,464,
scooby_state_59cdf2|31|1 9,434,1,0,1,2,1,2,2,2,0,2,2,1,1,460,
scooby_state_59cdf2|20|1 1,454,3,0,0,0,0,0,0,0,0,1,0,0,1,460,
scooby_state_59cd9b|16|0 1,458,0,0,0,0,1,0,0,0,0,0,0,0,0,460,
scooby_state_59cd9b|3|0 0,457,0,1,1,0,0,0,0,0,0,0,0,0,0,459,
scooby_state_59cdf2|3|1 8,432,1,1,0,1,1,1,0,1,0,3,3,2,1,455,
scooby_state_59cdf2|13|1 11,425,0,1,0,1,1,1,0,2,1,4,1,1,5,454,
scooby_state_59cd9b|37|0 0,452,0,1,0,0,0,0,0,0,0,0,0,0,0,453,
scooby_state_59cdf2|18|1 6,432,0,3,1,1,0,0,0,2,1,1,0,0,1,448,
scooby_state_59cdf2|23|1 2,434,2,0,1,1,2,1,0,1,0,0,0,0,1,445,
scooby_state_59cd9b|32|0 3,440,0,0,0,0,0,0,0,0,0,0,0,0,0,443,
scooby_state_59cdf2|6|1 6,420,0,2,0,2,0,3,0,1,0,2,3,1,1,441,
scooby_state_59cdf2|19|1 5,417,1,0,1,1,1,0,1,3,0,1,2,2,5,440,
scooby_state_59cd9b|4|0 1,436,0,0,0,0,0,1,0,0,0,0,0,0,0,438,
scooby_state_59cd9b|27|0 4,433,0,0,0,0,0,0,0,0,0,0,0,0,0,437,
scooby_state_59cdf2|25|1 6,416,1,2,0,0,0,3,0,0,0,2,2,2,2,436,
scooby_state_59cd9b|15|0 0,433,0,0,0,0,0,0,1,0,0,0,0,0,0,434,
scooby_state_59cdf2|63|1 7,411,3,0,2,0,0,0,1,2,1,2,1,2,1,433,
scooby_state_59cd9b|20|0 0,433,0,0,0,0,0,0,0,0,0,0,0,0,0,433,
scooby_state_59cd9b|26|0 3,429,0,0,0,0,0,0,0,0,0,0,1,0,0,433,
scooby_state_59cd9b|19|0 1,430,0,0,0,0,0,0,0,0,0,0,1,0,0,432,
scooby_state_59cdf2|2|1 6,408,1,0,0,2,1,0,1,0,1,2,6,1,0,429,
scooby_state_59cdf2|43|1 9,392,1,4,0,0,5,0,3,2,1,2,4,1,4,428,
scooby_state_59cd9b|5|0 2,424,0,0,0,0,0,0,0,0,0,0,0,0,0,426,
scooby_state_59cd9b|28|0 2,423,0,0,0,0,0,0,0,0,0,0,0,0,0,425,
scooby_state_59cd9b|17|0 1,423,0,0,0,0,0,0,0,0,0,0,0,0,0,424,
scooby_state_59cdf2|10|1 12,391,1,0,1,3,2,2,1,1,0,0,5,0,4,423,
scooby_state_59cdf2|9|1 5,407,1,1,1,0,1,0,1,1,1,0,1,1,2,423,
scooby_state_59cdf2|14|1 3,409,0,3,0,0,0,0,2,0,0,0,2,1,2,422,
scooby_state_59cdf2|42|1 5,404,0,2,1,1,1,0,1,0,1,0,3,1,1,421,
scooby_state_59cdf2|34|1 13,382,2,1,2,1,1,1,3,3,0,2,5,3,1,420,
scooby_state_59cd9b|25|0 2,413,0,0,0,0,0,0,0,0,0,0,0,1,0,416,
scooby_state_59cd9b|35|0 2,410,0,0,0,0,0,1,0,0,0,0,0,0,0,413,
scooby_state_59cdf2|56|1 6,390,1,1,0,3,0,1,2,0,2,1,4,2,0,413,
scooby_state_59cdf2|22|1 11,385,2,0,2,2,1,1,2,3,0,0,1,1,2,413,
scooby_state_59cd9b|6|0 1,411,0,0,0,0,0,0,0,0,0,0,0,0,0,412,
scooby_state_59cd9b|9|0 3,405,0,0,0,0,0,0,1,0,1,0,0,1,0,411,
scooby_state_59cd9b|18|0 1,409,0,0,0,0,0,0,0,1,0,0,0,0,0,411,
scooby_state_59cdf2|52|1 2,403,2,1,0,0,0,0,0,0,1,0,0,0,2,411,
scooby_state_59cdf2|60|1 5,390,0,2,0,0,2,1,1,0,0,1,3,3,2,410,
scooby_state_59cdf2|32|1 7,386,1,0,0,3,1,3,1,0,0,1,6,0,0,409,
scooby_state_59cd9b|33|0 2,406,0,0,0,0,0,0,0,0,0,0,0,0,0,408,
scooby_state_59cdf2|16|1 4,395,1,0,1,0,0,0,0,1,0,1,0,1,1,405,
scooby_state_59cd9b|11|0 2,402,0,0,0,0,0,0,0,0,1,0,0,0,0,405,
scooby_state_59cdf2|61|1 8,376,2,3,1,1,2,0,0,2,0,4,2,1,2,404,
scooby_state_59cd9b|47|0 1,402,0,0,0,0,0,0,0,0,0,0,0,0,0,403,
scooby_state_59cdbf|1|0 402,0,0,0,0,0,0,0,0,0,0,0,0,0,0,402,
scooby_state_59cd9b|22|0 3,396,0,0,0,0,0,0,0,0,0,0,0,0,0,399,
scooby_state_59cd9b|29|0 2,393,0,1,0,0,0,0,0,0,0,0,0,0,0,396,
scooby_state_59cdf2|26|1 5,380,0,0,0,1,0,2,1,1,0,2,2,2,0,396,
scooby_state_59cd9b|40|0 1,392,0,0,0,0,0,0,0,0,0,0,0,0,0,393,
scooby_state_59cd9b|34|0 1,389,0,0,0,0,0,0,0,0,0,0,1,0,0,391,
scooby_state_59cd9b|54|0 2,387,0,0,0,1,0,0,0,0,0,0,0,0,0,390,
scooby_state_59cdf2|21|1 3,378,0,0,2,0,1,1,0,0,0,1,1,3,0,390,
scooby_state_59cdf2|30|1 6,359,2,1,3,1,0,0,2,0,0,4,7,1,3,389,
scooby_state_59cdf2|59|1 8,367,1,1,0,0,1,3,1,1,0,2,1,2,1,389,
scooby_state_59cdf2|15|1 4,366,2,1,1,0,3,0,0,2,2,1,4,1,2,389,
scooby_state_59cdf2|5|1 5,376,1,0,0,0,0,0,0,1,0,1,0,2,2,388,
scooby_state_59cdf2|7|1 5,375,2,0,0,0,0,1,0,0,1,2,2,0,0,388,
scooby_state_59cd9b|8|0 0,384,0,0,0,0,0,0,0,0,0,0,0,0,0,384,
scooby_state_59cdf2|58|1 4,369,0,2,0,1,0,2,0,0,1,1,2,1,1,384,
scooby_state_59cdf2|49|1 4,365,1,1,1,0,2,0,0,1,1,1,4,1,1,383,
scooby_state_59cdf2|33|1 3,368,0,2,0,0,1,0,2,0,3,0,2,0,2,383,
scooby_state_59cd9b|50|0 0,381,0,0,0,0,0,0,0,0,1,0,0,0,0,382,
scooby_state_59cd9b|44|0 1,378,0,0,0,0,0,0,0,0,0,0,0,0,1,380,
scooby_state_59cd9b|36|0 0,379,0,0,0,0,0,0,0,0,0,0,0,1,0,380,
scooby_state_59cd9b|31|0 1,378,0,0,0,0,0,0,0,0,0,0,0,0,0,379,
scooby_state_59cdf2|47|1 5,359,1,0,0,0,3,1,0,3,0,1,2,0,0,375,
scooby_state_59cd9b|30|0 5,369,0,0,0,0,0,0,0,0,0,0,0,0,0,374,
scooby_state_59cd9b|62|0 3,368,0,1,0,0,0,0,1,0,0,0,0,0,0,373,
scooby_state_59cdf2|46|1 4,357,3,0,1,0,0,0,0,1,0,2,4,0,1,373,
scooby_state_59cd9b|7|0 5,363,0,0,0,0,0,0,0,1,0,0,0,0,0,369,
scooby_state_59cd9b|53|0 4,365,0,0,0,0,0,0,0,0,0,0,0,0,0,369,
scooby_state_59cd8d|63|0 336,16,1,0,2,1,3,1,1,2,2,0,1,0,2,368,
scooby_state_59cd9b|23|0 1,367,0,0,0,0,0,0,0,0,0,0,0,0,0,368,
scooby_state_59cdf2|39|1 2,349,2,1,1,2,0,1,0,0,0,1,3,2,1,365,
scooby_state_59cdf2|57|1 5,352,2,0,0,0,2,0,0,2,0,0,0,1,0,364,
scooby_state_59cd9b|39|0 0,361,0,0,0,0,0,1,0,1,0,0,0,0,0,363,
scooby_state_59cdf2|37|1 7,334,0,2,5,0,0,0,1,0,0,1,4,1,1,356,
scooby_state_59cdf2|11|1 8,340,0,0,1,1,1,0,1,0,1,0,1,0,2,356,
scooby_state_59cd9b|49|0 0,355,0,0,0,0,0,0,0,0,0,0,0,0,0,355,
scooby_state_59cd9b|21|0 3,352,0,0,0,0,0,0,0,0,0,0,0,0,0,355,
scooby_state_59cdf2|24|1 10,317,5,0,1,1,1,1,0,3,0,4,2,3,5,353,
scooby_state_59cd9b|45|0 1,352,0,0,0,0,0,0,0,0,0,0,0,0,0,353,
scooby_state_59cd9b|43|0 3,345,0,0,0,0,0,0,0,0,0,0,1,0,2,351,
scooby_state_59cdbf|38|1 348,0,0,0,0,0,0,0,0,0,0,0,0,0,0,348,
scooby_state_59cd9b|46|0 1,346,0,0,0,0,0,1,0,0,0,0,0,0,0,348,
scooby_state_59cdf2|54|1 8,326,0,2,1,1,2,1,1,0,1,1,2,0,2,348,
scooby_state_59cd9b|56|0 3,345,0,0,0,0,0,0,0,0,0,0,0,0,0,348,
scooby_state_59cd9b|48|0 2,345,0,0,0,0,0,0,0,0,0,0,0,0,0,347,
scooby_state_59cd9b|24|0 3,342,0,0,0,0,0,0,0,0,0,0,0,0,0,345,
scooby_state_59cdf2|53|1 5,328,2,0,1,1,1,0,1,1,0,0,4,1,0,345,
scooby_state_59cdf2|41|1 5,328,0,0,0,3,1,1,0,1,1,1,2,2,0,345,
scooby_state_59cdf2|48|1 8,316,0,1,2,2,0,2,1,0,2,1,4,1,1,341,
scooby_state_59cd9b|60|0 1,339,0,0,0,0,0,0,0,0,0,0,0,0,1,341,
scooby_state_59cd9b|12|0 2,338,0,0,0,0,0,0,0,0,0,0,0,0,0,340,
scooby_state_59cdf2|44|1 3,326,0,1,0,1,1,0,1,0,0,0,3,1,1,338,
scooby_state_59cd9b|63|0 0,333,1,0,0,0,0,0,0,0,0,1,0,0,1,336,
scooby_state_59cdf2|38|1 5,320,1,1,0,2,2,1,1,0,0,0,3,0,0,336,
scooby_state_59cdf2|62|1 1,325,0,1,1,0,0,2,1,1,0,1,0,1,0,334,
scooby_state_59cd9b|51|0 0,332,0,0,0,0,0,0,1,0,0,0,0,0,0,333,
scooby_state_59cd9b|13|0 2,329,0,0,0,0,0,0,0,0,0,0,0,1,0,332,
scooby_state_59cd9b|41|0 1,328,0,0,0,0,0,0,0,1,0,0,0,0,0,330,
scooby_state_59cd9b|10|0 1,326,0,0,0,0,0,0,0,0,0,0,0,0,0,327,
scooby_state_59cdbf|53|1 322,1,0,0,0,0,0,0,0,0,0,0,0,0,0,323,
scooby_state_59cd9b|57|0 3,319,0,0,0,0,0,0,0,0,0,0,0,0,0,322,
scooby_state_59cdbf|54|2 317,0,0,0,0,0,0,0,0,1,0,0,0,0,0,318,
scooby_state_59cdbf|12|1 316,0,0,0,0,0,0,0,0,0,0,0,0,0,0,316,
scooby_state_59cdf2|27|1 3,308,0,0,0,0,1,0,1,0,0,0,2,0,0,315,
scooby_state_59cd9b|59|0 2,312,0,0,0,0,0,0,0,0,0,0,0,0,0,314,
scooby_state_59cdbf|16|1 313,0,0,0,0,0,0,0,0,0,0,0,0,0,0,313,
scooby_state_59cdbf|48|1 311,0,0,0,0,0,0,0,0,0,1,0,0,0,0,312,
scooby_state_59cdbf|10|1 311,0,0,0,0,0,0,0,0,0,0,0,0,0,0,311,
scooby_state_59cd9b|61|0 3,305,0,0,1,0,0,0,0,0,0,0,1,0,0,310,
scooby_state_59cdf2|45|1 5,285,4,1,2,2,2,0,1,0,0,1,3,1,1,308,
scooby_state_59cdbf|4|1 302,0,0,0,0,0,0,0,0,0,0,0,0,0,0,302,
scooby_state_59cdf2|51|1 2,291,1,0,1,1,0,2,0,0,1,0,3,0,0,302,
scooby_state_59cdbf|62|1 299,0,0,0,0,0,0,0,0,0,0,0,1,0,0,300,
scooby_state_59cdbf|15|1 298,0,0,0,0,0,0,0,0,0,0,0,0,0,0,298,
scooby_state_59cdbf|49|2 295,0,0,0,0,0,0,0,1,0,0,0,0,0,0,296,
scooby_state_59cdbf|33|1 292,0,0,0,0,0,0,0,0,0,0,0,0,0,1,293,
scooby_state_59cd9b|38|0 0,291,0,0,0,0,0,0,0,0,0,0,0,0,1,292,
scooby_state_59cdbf|62|2 291,0,0,0,0,0,0,0,0,0,0,0,0,0,0,291,
scooby_state_59cdbf|15|2 290,1,0,0,0,0,0,0,0,0,0,0,0,0,0,291,
scooby_state_59cd9b|55|0 2,286,0,0,0,0,0,0,0,0,0,0,0,0,0,288,
scooby_state_59cdbf|17|1 287,0,0,0,0,0,0,0,0,0,0,0,0,0,0,287,
scooby_state_59cdbf|30|1 286,0,0,0,0,0,0,0,0,0,0,0,0,0,0,286,
scooby_state_59cd9b|42|0 1,284,0,0,0,0,0,0,0,0,0,0,0,0,0,285,
scooby_state_59cdbf|42|2 283,0,0,0,0,0,0,0,0,1,0,0,0,0,0,284,
scooby_state_59cdbf|46|2 280,0,0,0,1,0,0,0,0,0,0,0,0,0,0,281,
scooby_state_59cdbf|19|2 279,0,0,0,0,0,0,0,0,0,0,0,0,1,0,280,
scooby_state_59cdbf|34|2 280,0,0,0,0,0,0,0,0,0,0,0,0,0,0,280,
scooby_state_59cdbf|16|2 280,0,0,0,0,0,0,0,0,0,0,0,0,0,0,280,
scooby_state_59cdbf|8|1 279,0,0,0,0,0,0,0,0,0,0,0,0,0,0,279,
scooby_state_59cdbf|55|2 278,0,0,0,0,0,0,0,1,0,0,0,0,0,0,279,
scooby_state_59cdbf|23|1 279,0,0,0,0,0,0,0,0,0,0,0,0,0,0,279,
scooby_state_59cdbf|28|2 276,0,0,0,0,0,0,1,0,0,0,0,0,0,0,277,
scooby_state_59cdbf|56|2 277,0,0,0,0,0,0,0,0,0,0,0,0,0,0,277,
scooby_state_59cdbf|14|2 277,0,0,0,0,0,0,0,0,0,0,0,0,0,0,277,
scooby_state_59cdbf|57|2 276,0,0,0,0,0,0,0,0,0,0,0,0,0,0,276,
scooby_state_59cdbf|35|2 271,1,0,0,0,0,0,0,0,0,0,0,0,0,0,272,
scooby_state_59cdbf|26|1 271,0,0,0,0,0,0,0,0,0,0,1,0,0,0,272,
scooby_state_59cdbf|41|1 271,0,0,0,0,0,0,0,0,0,0,0,0,0,0,271,
scooby_state_59cdbf|51|1 271,0,0,0,0,0,0,0,0,0,0,0,0,0,0,271,
scooby_state_59cdbf|3|2 271,0,0,0,0,0,0,0,0,0,0,0,0,0,0,271,
scooby_state_59cdbf|39|2 270,0,0,0,0,0,0,0,0,0,1,0,0,0,0,271,
scooby_state_59cdbf|7|2 270,0,0,0,0,0,0,0,0,0,0,0,0,0,0,270,
scooby_state_59cdbf|7|1 268,0,0,0,0,0,0,0,0,0,0,1,0,0,1,270,
scooby_state_59cd9b|58|0 2,267,0,0,0,0,0,0,0,0,0,0,1,0,0,270,
scooby_state_59cdbf|30|2 269,0,0,0,0,0,0,0,0,0,0,0,0,0,0,269,
scooby_state_59cdbf|5|2 269,0,0,0,0,0,0,0,0,0,0,0,0,0,0,269,
scooby_state_59cdbf|59|2 269,0,0,0,0,0,0,0,0,0,0,0,0,0,0,269,
scooby_state_59cdbf|21|2 267,0,0,1,0,0,0,0,0,0,0,1,0,0,0,269,
scooby_state_59cdbf|4|2 269,0,0,0,0,0,0,0,0,0,0,0,0,0,0,269,
scooby_state_59cdbf|41|2 267,0,0,0,1,0,0,0,0,0,0,0,0,0,0,268,
scooby_state_59cdbf|48|2 266,0,0,0,0,0,0,0,0,0,0,0,0,0,0,266,
scooby_state_59cdbf|22|2 265,0,0,0,0,0,0,0,0,0,0,0,0,0,0,265,
scooby_state_59cdbf|12|2 264,0,0,0,0,0,1,0,0,0,0,0,0,0,0,265,
scooby_state_59cdbf|18|2 263,0,0,0,0,0,0,0,0,0,0,1,0,0,0,264,
scooby_state_59cdbf|58|1 264,0,0,0,0,0,0,0,0,0,0,0,0,0,0,264,
scooby_state_59cdbf|55|1 263,0,0,0,0,0,0,1,0,0,0,0,0,0,0,264,
scooby_state_59cdbf|61|2 262,0,1,0,0,0,0,0,0,0,0,0,0,0,0,263,
scooby_state_59cdbf|21|1 262,0,0,0,0,0,0,0,0,0,0,0,0,0,0,262,
scooby_state_59cdbf|1|1 262,0,0,0,0,0,0,0,0,0,0,0,0,0,0,262,
scooby_state_59cdbf|33|2 260,0,0,0,0,0,1,0,0,0,0,0,0,0,0,261,
scooby_state_59cdbf|29|1 260,0,0,0,0,0,0,0,0,0,0,0,0,0,0,260,
scooby_state_59cdbf|27|1 260,0,0,0,0,0,0,0,0,0,0,0,0,0,0,260,
scooby_state_59cdbf|37|2 258,0,0,0,0,0,0,0,0,0,0,0,0,0,0,258,
scooby_state_59cdbf|45|2 257,0,0,0,0,0,0,0,0,0,0,0,0,0,0,257,
scooby_state_59cdbf|36|1 257,0,0,0,0,0,0,0,0,0,0,0,0,0,0,257,
scooby_state_59cdbf|27|2 257,0,0,0,0,0,0,0,0,0,0,0,0,0,0,257,
scooby_state_59cdbf|3|1 255,0,0,0,0,0,0,0,0,0,0,0,0,0,0,255,
scooby_state_59cdbf|31|1 253,0,0,0,0,0,0,1,0,0,0,0,0,0,0,254,
scooby_state_59cdbf|19|1 253,0,0,0,0,0,0,0,0,0,0,0,0,0,0,253,
scooby_state_59cd8d|0|-4 113,78,54,1,0,0,1,0,0,0,0,0,0,1,3,251,
scooby_state_59cdbf|63|1 251,0,0,0,0,0,0,0,0,0,0,0,0,0,0,251,
scooby_state_59cdbf|59|1 250,0,0,0,1,0,0,0,0,0,0,0,0,0,0,251,
scooby_state_59cdbf|60|1 250,0,0,0,0,0,0,0,0,0,0,0,0,0,0,250,
scooby_state_59cdbf|46|1 248,0,0,0,0,0,0,0,0,0,0,1,0,0,0,249,
scooby_state_59cde2|2|0 229,1,2,1,1,0,1,0,2,0,0,0,7,1,4,249,
scooby_state_59cdbf|24|1 249,0,0,0,0,0,0,0,0,0,0,0,0,0,0,249,
scooby_state_59cdbf|20|2 249,0,0,0,0,0,0,0,0,0,0,0,0,0,0,249,
scooby_state_59cdbf|43|2 248,0,0,0,0,0,0,0,0,0,0,0,0,0,0,248,
scooby_state_59cdbf|6|1 247,0,0,0,0,0,0,0,1,0,0,0,0,0,0,248,
scooby_state_59cdbf|31|2 246,0,0,0,0,0,0,0,0,0,0,1,0,0,1,248,
scooby_state_59cdbf|20|1 247,0,0,0,0,0,0,1,0,0,0,0,0,0,0,248,
scooby_state_59cdbf|52|1 245,0,1,1,0,0,0,0,0,0,0,0,0,0,0,247,
scooby_state_59cdbf|47|2 246,0,0,0,0,0,0,0,0,0,0,0,0,0,0,246,
scooby_state_59cdbf|60|2 246,0,0,0,0,0,0,0,0,0,0,0,0,0,0,246,
scooby_state_59cdbf|37|1 245,0,0,0,0,0,0,0,0,0,0,0,0,0,0,245,
scooby_state_59cdbf|50|1 243,0,0,0,0,0,1,0,0,0,0,0,0,0,0,244,
scooby_state_59cdbf|34|1 244,0,0,0,0,0,0,0,0,0,0,0,0,0,0,244,
scooby_state_59cdbf|51|2 242,0,0,0,0,0,0,0,0,0,0,0,0,0,0,242,
scooby_state_59cd8d|59|-4 123,72,38,2,0,0,0,0,0,0,1,0,2,0,3,241,
scooby_state_59cdbf|17|2 241,0,0,0,0,0,0,0,0,0,0,0,0,0,0,241,
scooby_state_59cdcf|63|1 28,11,0,0,0,1,1,0,0,0,0,0,199,0,1,241,
scooby_state_59cdbf|57|1 239,0,0,0,0,0,0,0,0,0,0,0,0,0,0,239,
scooby_state_59cdbf|29|2 235,0,0,0,0,0,1,0,0,1,0,0,0,0,0,237,
scooby_state_59cdbf|2|1 235,0,0,0,0,0,0,0,1,0,0,0,0,0,0,236,
scooby_state_59cdbf|36|2 234,0,0,0,0,1,0,0,0,0,0,0,0,0,0,235,
scooby_state_59cdbf|5|1 234,0,0,0,1,0,0,0,0,0,0,0,0,0,0,235,
scooby_state_59cdbf|8|2 234,0,0,0,0,0,0,0,0,0,0,0,0,0,0,234,
scooby_state_59cdbf|28|1 234,0,0,0,0,0,0,0,0,0,0,0,0,0,0,234,
scooby_state_59cdbf|32|2 234,0,0,0,0,0,0,0,0,0,0,0,0,0,0,234,
scooby_state_59cd8d|51|-4 125,57,43,0,0,0,1,0,1,0,1,0,3,0,1,232,
scooby_state_59cdbf|6|2 229,0,0,0,0,0,0,0,0,0,0,0,0,0,0,229,
scooby_state_59cdbf|13|2 227,2,0,0,0,0,0,0,0,0,0,0,0,0,0,229,
scooby_state_59cdbf|10|2 228,0,0,0,0,0,0,0,0,0,0,0,0,0,0,228,
scooby_state_59cdbf|11|2 228,0,0,0,0,0,0,0,0,0,0,0,0,0,0,228,
scooby_state_59cdbf|18|1 226,0,0,0,0,0,0,0,0,0,0,0,0,0,0,226,
scooby_state_59cdbf|25|2 225,0,0,0,0,0,0,0,0,0,0,0,0,0,0,225,
scooby_state_59cdbf|23|2 225,0,0,0,0,0,0,0,0,0,0,0,0,0,0,225,
scooby_state_59cdcb|49|1 220,1,0,1,0,0,0,0,0,0,0,0,0,0,0,222,
scooby_state_59cdcb|35|1 221,0,0,0,0,0,0,0,0,0,0,0,0,0,0,221,
scooby_state_59cdbf|47|1 221,0,0,0,0,0,0,0,0,0,0,0,0,0,0,221,
scooby_state_59cdbf|35|1 216,0,0,0,0,0,0,0,0,1,0,0,0,0,0,217,
scooby_state_59cdbf|38|2 215,0,0,0,0,1,0,1,0,0,0,0,0,0,0,217,
scooby_state_59cdbf|49|1 217,0,0,0,0,0,0,0,0,0,0,0,0,0,0,217,
scooby_state_59cdbf|40|2 215,1,0,0,0,0,0,0,0,1,0,0,0,0,0,217,
scooby_state_59cdbf|58|2 216,0,0,0,0,0,0,0,0,0,0,0,0,0,0,216,
scooby_state_59cdbf|2|2 214,0,0,0,0,0,0,0,1,0,0,0,0,0,0,215,
scooby_state_59cdbf|32|1 213,0,0,0,1,0,0,0,0,0,0,0,0,0,0,214,
scooby_state_59cdbf|11|1 213,0,0,0,0,0,0,0,0,0,0,0,0,0,0,213,
scooby_state_59cdbf|54|1 213,0,0,0,0,0,0,0,0,0,0,0,0,0,0,213,
scooby_state_59cdcb|2|1 210,0,0,0,0,0,0,0,0,0,0,0,0,0,0,210,
scooby_state_59cd8d|32|-4 93,65,48,0,0,2,0,0,0,0,0,0,0,0,1,209,
scooby_state_59cde2|1|0 197,0,1,0,1,1,1,0,0,0,1,2,1,2,1,208,
scooby_state_59cd8d|25|-4 92,65,38,0,0,2,0,1,1,0,0,1,5,1,2,208,
scooby_state_59cdbf|22|1 208,0,0,0,0,0,0,0,0,0,0,0,0,0,0,208,
scooby_state_59cdcb|5|1 207,0,0,0,0,0,0,0,0,0,0,0,0,0,0,207,
scooby_state_59cdbf|24|2 205,0,0,0,0,1,0,0,0,0,0,0,0,0,0,206,
scooby_state_59cd8d|46|-4 82,64,46,1,0,2,0,1,1,0,2,0,3,0,4,206,
scooby_state_59cd8d|53|-4 93,68,37,0,0,0,0,0,0,1,0,1,0,1,4,205,
scooby_state_59cd8d|5|-4 84,78,33,1,0,5,0,0,0,0,0,1,1,0,1,204,
scooby_state_59cdcb|54|1 203,0,0,0,0,0,0,0,0,0,0,0,0,0,0,203,
scooby_state_59cdbf|39|1 199,0,1,0,1,0,0,0,0,0,0,0,0,0,0,201,
scooby_state_59cd8d|15|-4 107,58,30,1,0,0,0,1,0,0,0,1,1,0,2,201,
scooby_state_59cdbf|9|1 201,0,0,0,0,0,0,0,0,0,0,0,0,0,0,201,
scooby_state_59cd8d|11|-4 99,80,17,1,0,0,0,0,1,0,0,0,2,0,1,201,
scooby_state_59cd8d|9|-4 97,53,40,0,0,2,0,0,0,0,1,0,4,1,2,200,
scooby_state_59cdcb|34|1 200,0,0,0,0,0,0,0,0,0,0,0,0,0,0,200,
scooby_state_59cd8d|39|-4 91,65,34,1,0,3,0,1,2,0,0,0,1,0,1,199,
scooby_state_59cdbf|44|2 199,0,0,0,0,0,0,0,0,0,0,0,0,0,0,199,
scooby_state_59cdcb|61|1 198,0,0,0,0,0,0,0,0,0,0,0,0,0,0,198,
scooby_state_59cd8d|31|-4 86,59,46,0,0,2,0,1,1,0,0,2,1,0,0,198,
scooby_state_59cdee|55|1 6,3,1,4,1,1,1,0,0,1,1,2,0,4,173,198,
scooby_state_59cdcb|24|1 195,0,0,0,0,0,0,0,0,0,0,0,0,0,0,195,
scooby_state_59cdcb|13|1 195,0,0,0,0,0,0,0,0,0,0,0,0,0,0,195,
scooby_state_59cdbf|56|1 195,0,0,0,0,0,0,0,0,0,0,0,0,0,0,195,
scooby_state_59cd8d|48|-4 100,61,27,1,0,0,1,0,0,0,0,0,1,1,2,194,
scooby_state_59cdbf|45|1 194,0,0,0,0,0,0,0,0,0,0,0,0,0,0,194,
scooby_state_59cdbf|25|1 193,0,0,0,0,0,0,0,0,0,0,0,0,0,0,193,
scooby_state_59cdbf|9|2 192,0,0,0,0,0,0,0,0,0,0,0,0,1,0,193,
scooby_state_59cdcb|60|1 192,0,0,0,0,0,0,0,0,0,0,0,0,0,0,192,
scooby_state_59cde2|61|0 179,0,1,0,1,0,1,1,2,1,1,3,1,0,1,192,
scooby_state_59cdcb|8|1 191,0,0,0,0,0,0,0,0,0,0,0,0,0,0,191,
scooby_state_59cdbf|52|2 191,0,0,0,0,0,0,0,0,0,0,0,0,0,0,191,
scooby_state_59cdbf|42|1 190,0,0,0,0,0,0,0,0,0,0,0,1,0,0,191,
scooby_state_59cde2|59|0 171,2,1,1,0,1,2,0,1,0,1,1,7,1,2,191,
scooby_state_59cdbf|40|1 189,0,0,0,0,0,0,0,0,0,0,0,0,1,0,190,
scooby_state_59cd8d|10|-4 112,45,18,0,0,3,0,0,1,0,2,2,1,1,4,189,
scooby_state_59cdcb|31|1 189,0,0,0,0,0,0,0,0,0,0,0,0,0,0,189,
scooby_state_59cd8d|43|-4 74,68,39,0,0,0,1,0,0,0,1,0,1,1,4,189,
scooby_state_59cd8d|57|-4 100,44,37,0,0,2,0,0,0,0,0,1,1,1,2,188,
scooby_state_59cdbf|26|2 187,0,0,0,0,0,0,0,0,0,0,0,0,0,0,187,
scooby_state_59cdcb|32|1 186,0,0,0,0,0,0,1,0,0,0,0,0,0,0,187,
scooby_state_59cdcb|51|1 183,0,0,0,0,0,0,0,0,0,0,1,0,0,0,184,
scooby_state_59cdbf|14|1 182,0,0,0,0,0,1,0,0,0,0,0,0,0,0,183,
scooby_state_59cdbf|50|2 183,0,0,0,0,0,0,0,0,0,0,0,0,0,0,183,
scooby_state_59d4e0|40|1 134,15,1,2,3,3,3,1,0,2,1,1,1,6,9,182,
scooby_state_59cdbf|11|0 181,0,0,0,1,0,0,0,0,0,0,0,0,0,0,182,
scooby_state_59cd8d|8|-4 79,59,30,1,0,1,1,0,1,1,0,0,4,1,3,181,
scooby_state_59cd8d|61|-2 106,46,0,2,0,2,1,1,2,2,3,4,4,2,6,181,
scooby_state_59cdbf|43|1 181,0,0,0,0,0,0,0,0,0,0,0,0,0,0,181,
scooby_state_59cde2|0|0 169,0,0,1,1,0,1,1,0,0,0,0,3,0,5,181,
scooby_state_59cdee|50|1 12,1,0,0,3,1,4,4,1,0,1,1,1,0,152,181,
scooby_state_59cdee|61|1 9,1,0,1,2,0,1,0,2,1,0,2,1,0,160,180,
scooby_state_59cdbf|28|0 180,0,0,0,0,0,0,0,0,0,0,0,0,0,0,180,
scooby_state_59cde2|54|0 172,1,0,0,0,0,0,1,1,0,1,0,3,1,0,180,
scooby_state_59d4d1|1|0 134,2,1,6,1,1,2,2,3,0,3,6,4,6,8,179,
scooby_state_59d4e0|4|1 123,10,2,2,1,2,2,3,5,2,2,6,3,2,14,179,
scooby_state_59cdcb|47|1 178,0,0,0,0,1,0,0,0,0,0,0,0,0,0,179,
scooby_state_59cd8d|62|-1 164,3,1,0,1,1,0,2,0,1,1,1,1,0,2,178,
scooby_state_59cde2|52|0 169,0,1,0,1,1,1,1,0,1,0,2,0,0,1,178,
scooby_state_59cdbf|53|2 176,0,0,0,0,0,0,0,0,1,0,0,0,0,1,178,
scooby_state_59cdcb|42|1 178,0,0,0,0,0,0,0,0,0,0,0,0,0,0,178,
scooby_state_59cdcb|63|1 178,0,0,0,0,0,0,0,0,0,0,0,0,0,0,178,
scooby_state_59cdbf|5|0 177,0,0,0,0,0,0,0,0,0,0,0,0,0,0,177,
scooby_state_59cdcb|17|1 177,0,0,0,0,0,0,0,0,0,0,0,0,0,0,177,
scooby_state_59cdcb|22|1 177,0,0,0,0,0,0,0,0,0,0,0,0,0,0,177,
scooby_state_59d4e0|59|1 124,22,3,1,0,4,3,2,0,1,1,3,4,0,8,176,
scooby_state_59cd8d|3|-4 95,43,30,2,0,0,0,0,0,1,0,0,2,0,2,175,
scooby_state_59cd8d|24|-4 80,49,40,0,0,2,0,1,1,0,0,0,0,0,2,175,
scooby_state_59cd8d|19|-4 92,42,34,2,0,0,0,0,0,0,1,0,1,0,3,175,
scooby_state_59cde2|60|0 171,0,1,0,0,0,0,0,1,0,0,0,2,0,0,175,
scooby_state_59cdcb|0|0 175,0,0,0,0,0,0,0,0,0,0,0,0,0,0,175,
scooby_state_59cdbf|63|2 175,0,0,0,0,0,0,0,0,0,0,0,0,0,0,175,
scooby_state_59cd8d|45|-4 78,41,47,0,0,0,0,2,0,0,2,1,3,0,0,174,
scooby_state_59cdcb|27|1 173,0,0,0,0,0,1,0,0,0,0,0,0,0,0,174,
scooby_state_59cd8d|56|-4 88,47,28,0,0,1,1,0,0,0,0,2,0,2,5,174,
scooby_state_59cd8d|60|-3 34,126,5,1,0,0,0,1,2,1,0,0,0,1,3,174,
scooby_state_59cd8d|2|-4 88,51,29,0,0,2,1,1,0,0,0,0,0,0,1,173,
scooby_state_59cdee|18|1 5,0,1,0,1,1,2,1,3,0,2,1,1,0,155,173,
scooby_state_59cd8d|55|-4 79,73,16,1,0,1,0,0,0,0,0,0,1,0,2,173,
scooby_state_59cde2|9|0 155,1,2,1,1,0,0,2,0,1,0,4,4,0,1,172,
scooby_state_59cdbf|44|1 172,0,0,0,0,0,0,0,0,0,0,0,0,0,0,172,
scooby_state_59cdcb|48|1 170,1,0,0,0,0,0,0,0,0,0,0,0,0,0,171,
scooby_state_59cdcb|20|1 170,0,0,0,0,0,0,0,0,0,0,0,0,0,0,170,
scooby_state_59cd8d|54|0 152,8,0,3,1,1,0,0,0,1,1,1,1,0,1,170,
scooby_state_59cde2|7|0 156,1,0,0,0,3,1,1,0,1,0,0,4,1,2,170,
scooby_state_59cdcb|3|1 170,0,0,0,0,0,0,0,0,0,0,0,0,0,0,170,
scooby_state_59cde2|5|0 161,1,0,1,0,0,1,0,0,1,1,0,3,0,1,170,
scooby_state_59cde2|51|0 162,0,1,1,1,0,0,3,0,0,0,0,1,1,0,170,
scooby_state_59cd8d|6|-4 58,76,34,0,0,0,0,0,0,0,0,0,0,0,1,169,
scooby_state_59cdcf|52|1 18,12,0,3,0,0,1,0,0,0,1,0,134,0,0,169,
scooby_state_59cdbf|61|1 168,0,0,0,0,0,0,0,0,0,0,0,0,0,0,168,
scooby_state_59cdcf|57|1 16,9,2,2,0,0,0,1,0,0,1,0,137,0,0,168,
scooby_state_59cdcf|39|1 14,17,4,0,0,1,0,0,0,0,0,0,131,0,0,167,
scooby_state_59cdcb|11|1 166,0,0,0,0,0,0,0,0,0,0,0,1,0,0,167,
scooby_state_59cde2|63|0 159,0,0,0,1,0,0,1,0,0,0,0,5,0,1,167,
scooby_state_59cdcf|50|1 17,7,2,1,0,0,1,0,0,0,1,0,138,0,0,167,
scooby_state_59cde2|3|0 160,0,0,0,1,2,0,0,0,1,1,0,2,0,0,167,
scooby_state_59cd8d|58|-4 81,38,43,0,0,1,0,0,0,0,0,0,1,1,1,166,
scooby_state_59cdcb|28|1 164,0,0,1,0,0,0,0,0,0,0,0,0,0,0,165,
scooby_state_59cdee|40|1 9,0,3,0,0,1,1,1,2,1,0,0,0,1,146,165,
scooby_state_59cdcf|9|1 16,18,1,2,0,0,0,0,0,0,2,0,125,0,0,164,
scooby_state_59cdee|39|1 9,2,0,0,1,3,0,1,0,0,1,1,0,0,146,164,
scooby_state_59cdee|49|1 3,0,2,0,2,0,3,0,1,0,2,2,1,2,145,163,
scooby_state_59cd8d|52|-4 75,58,23,1,0,3,0,0,0,0,0,0,0,0,3,163,
scooby_state_59cde2|4|0 153,0,0,0,1,0,0,0,0,0,1,0,4,0,4,163,
scooby_state_59cdbf|12|0 161,1,0,0,0,1,0,0,0,0,0,0,0,0,0,163,
scooby_state_59cd8d|36|-4 67,46,39,0,0,2,0,1,0,0,0,1,0,3,3,162,
scooby_state_59cdcf|6|1 8,4,1,1,0,1,0,0,0,0,0,0,146,0,0,161,
scooby_state_59cdee|52|1 11,0,2,0,2,0,2,1,1,0,2,2,0,2,136,161,
scooby_state_59cdcb|30|1 161,0,0,0,0,0,0,0,0,0,0,0,0,0,0,161,
scooby_state_59cdcf|0|0 116,0,1,1,1,1,0,1,0,0,0,0,37,1,2,161,
scooby_state_59cd8d|41|-4 78,41,35,0,1,0,0,2,0,0,1,0,0,0,2,160,
scooby_state_59cdb0|60|1 124,1,0,1,0,0,1,1,0,0,0,1,1,0,30,160,
scooby_state_59cdcb|16|1 160,0,0,0,0,0,0,0,0,0,0,0,0,0,0,160,
scooby_state_59cd8d|1|-4 62,53,36,0,0,1,0,0,1,0,0,0,2,1,3,159,
scooby_state_59d4d1|2|0 130,2,2,4,3,2,0,2,2,2,2,1,0,2,5,159,
scooby_state_59cdcb|59|1 159,0,0,0,0,0,0,0,0,0,0,0,0,0,0,159,
scooby_state_59cdcb|21|1 159,0,0,0,0,0,0,0,0,0,0,0,0,0,0,159,
scooby_state_59cdee|4|1 15,0,1,4,3,1,0,0,3,0,0,2,1,0,128,158,
scooby_state_59cdbf|14|0 158,0,0,0,0,0,0,0,0,0,0,0,0,0,0,158,
scooby_state_59cdcb|6|1 158,0,0,0,0,0,0,0,0,0,0,0,0,0,0,158,
scooby_state_59cd8d|50|-4 62,57,31,0,0,1,0,0,0,0,3,2,1,0,1,158,
scooby_state_59cd8d|20|-4 72,54,26,1,0,1,0,0,0,0,0,1,2,0,1,158,
scooby_state_59d4e0|41|1 116,11,3,4,3,1,0,1,3,1,1,1,0,2,11,158,
scooby_state_59d4e0|60|1 103,24,3,4,4,3,2,0,1,1,1,2,2,0,7,157,
scooby_state_59cdcb|25|1 157,0,0,0,0,0,0,0,0,0,0,0,0,0,0,157,
scooby_state_59cd8d|28|-4 69,57,26,0,0,1,0,0,0,0,0,1,1,0,2,157,
scooby_state_59cde2|48|0 151,1,1,1,0,0,0,0,1,0,0,0,1,0,1,157,
scooby_state_59cdcf|16|1 9,10,0,0,0,1,0,1,1,0,0,0,134,0,1,157,
scooby_state_59cdbf|42|0 156,0,0,0,0,0,0,0,0,0,0,0,0,0,0,156,
scooby_state_59cdee|33|1 8,2,0,2,0,2,1,1,0,0,0,0,3,0,137,156,
scooby_state_59cdcb|39|1 156,0,0,0,0,0,0,0,0,0,0,0,0,0,0,156,
scooby_state_59cdee|8|1 10,3,2,0,1,1,1,2,3,0,1,1,1,3,126,155,
scooby_state_59cde2|39|0 151,0,0,0,0,0,0,1,0,0,0,0,0,2,1,155,
scooby_state_59cd8d|34|-4 83,46,22,0,0,0,1,0,0,0,0,0,1,0,1,154,
scooby_state_59d4e0|8|1 108,16,0,1,2,2,2,1,2,1,3,5,1,3,7,154,
scooby_state_59cd8d|29|-4 80,44,26,0,0,2,0,0,0,0,0,0,0,0,2,154,
scooby_state_59cdee|34|1 6,1,1,0,2,2,3,0,0,2,0,0,0,1,136,154,
scooby_state_59cdcb|58|1 153,0,0,0,0,0,0,0,0,0,0,0,0,0,0,153,
scooby_state_59cdcf|11|-1 0,0,1,0,0,0,0,0,0,0,1,0,150,0,1,153,
scooby_state_59cd8d|27|-4 79,44,24,1,0,0,0,0,0,2,0,1,0,0,1,152,
scooby_state_59cdee|24|1 1,2,1,0,3,3,2,1,3,0,1,0,1,1,133,152,
scooby_state_59cd8d|30|-4 80,33,30,0,0,1,1,0,1,0,0,1,3,0,2,152,
scooby_state_59cdcb|55|1 151,0,0,0,0,0,0,0,0,0,0,0,0,0,0,151,
scooby_state_59cd8d|17|-4 101,33,14,0,0,0,1,1,0,0,0,0,0,0,1,151,
scooby_state_59cdcb|1|1 150,0,0,0,0,0,0,0,0,0,0,0,0,0,0,150,
scooby_state_5010bd|0|0 150,0,0,0,0,0,0,0,0,0,0,0,0,0,0,150,
scooby_state_59cdcf|17|1 7,7,0,0,2,0,1,0,0,0,0,0,133,0,0,150,
scooby_state_59cdee|11|1 5,2,1,0,1,1,1,1,1,1,1,1,0,0,134,150,
scooby_state_59cdcf|58|1 12,9,0,0,1,0,0,0,0,0,0,1,127,0,0,150,
scooby_state_59cde2|37|0 143,0,0,1,0,0,1,2,0,0,0,1,1,0,1,150,
scooby_state_59cd8d|21|-4 73,52,22,1,0,0,0,0,0,0,0,0,1,0,0,149,
scooby_state_59cde2|27|0 145,0,1,0,0,0,0,0,0,1,0,0,2,0,0,149,
scooby_state_59d4d1|3|0 119,3,2,5,0,2,3,1,1,3,2,2,1,0,5,149,
scooby_state_59cd8d|37|-4 73,39,29,1,0,1,0,0,0,0,0,0,2,1,3,149,
scooby_state_59d4e0|7|1 112,13,2,2,1,1,0,1,2,1,2,2,0,0,10,149,
scooby_state_59cd8d|5|0 135,7,1,1,0,0,1,1,0,1,1,1,0,0,0,149,
scooby_state_59cdee|29|1 2,1,0,3,1,1,0,1,2,0,1,1,0,0,136,149,
scooby_state_59cde2|10|0 139,1,1,0,1,0,0,0,0,0,1,1,4,1,0,149,
scooby_state_59cdcb|29|1 147,0,0,1,0,0,0,0,0,0,0,0,0,0,0,148,
scooby_state_59cde2|56|0 144,1,1,0,0,0,0,0,0,0,0,0,1,0,1,148,
scooby_state_59cde2|62|0 142,1,0,0,0,0,0,0,0,1,0,0,3,0,1,148,
scooby_state_59cdcf|19|1 12,11,4,0,0,1,0,0,1,0,0,0,118,1,0,148,
scooby_state_59cde2|8|0 143,1,1,0,1,0,0,0,0,0,0,0,2,0,0,148,
scooby_state_59cdcb|19|1 147,0,0,0,0,0,0,0,0,0,0,0,0,0,0,147,
scooby_state_59cdcf|18|1 3,11,0,1,0,0,0,2,1,0,0,0,127,1,1,147,
scooby_state_59cde2|19|0 138,0,0,1,2,0,1,0,0,0,1,0,2,1,1,147,
scooby_state_59cdcf|42|1 24,11,5,1,1,0,0,0,0,1,0,0,103,0,0,146,
scooby_state_59cdcb|41|1 146,0,0,0,0,0,0,0,0,0,0,0,0,0,0,146,
scooby_state_59cdee|10|1 5,3,1,1,1,0,0,0,2,0,1,1,0,2,129,146,
scooby_state_59cdbf|4|0 146,0,0,0,0,0,0,0,0,0,0,0,0,0,0,146,
scooby_state_59cd8d|18|-4 67,38,35,0,1,0,1,1,0,0,0,0,1,0,2,146,
scooby_state_59cde2|45|0 141,1,0,2,0,0,0,0,0,1,0,0,0,1,0,146,
scooby_state_59cde2|20|0 142,1,0,1,0,0,0,0,0,1,0,0,1,0,0,146,
scooby_state_59cdbf|2|0 145,0,0,0,0,0,0,0,0,0,0,0,0,0,0,145,
scooby_state_59cdcb|38|1 145,0,0,0,0,0,0,0,0,0,0,0,0,0,0,145,
scooby_state_59cde2|18|0 135,0,1,0,1,0,0,0,1,0,0,0,3,0,3,144,
scooby_state_59cd8d|54|-4 65,52,19,1,2,1,0,0,0,0,1,0,0,1,2,144,
scooby_state_59cdee|19|1 10,0,3,2,0,0,3,0,0,0,0,2,1,1,122,144,
scooby_state_59cdbf|7|0 144,0,0,0,0,0,0,0,0,0,0,0,0,0,0,144,
scooby_state_59cdcf|54|1 17,8,0,1,0,0,0,0,1,0,0,0,116,0,1,144,
scooby_state_59cd8d|61|0 134,5,0,0,0,0,0,0,1,1,0,0,0,1,2,144,
scooby_state_59cdee|47|1 4,0,0,1,2,1,1,0,0,3,0,0,3,0,129,144,
scooby_state_59cdee|25|1 3,2,0,0,0,0,0,2,2,0,2,3,1,1,128,144,
scooby_state_59cd8d|44|0 131,6,1,0,0,1,1,0,1,0,0,0,1,0,2,144,
scooby_state_59cd8d|7|-4 73,36,32,0,0,0,0,0,1,0,0,0,1,0,1,144,
scooby_state_59cd8d|42|-4 68,48,25,0,0,0,0,0,0,0,0,0,1,0,1,143,
scooby_state_59cdee|59|1 10,1,0,0,0,1,0,4,1,0,0,1,1,0,124,143,
scooby_state_59cdcf|16|-1 0,0,0,0,0,0,0,0,1,0,0,0,141,0,0,142,
scooby_state_59cde2|23|0 135,2,0,1,0,0,0,0,0,0,0,1,1,1,1,142,
scooby_state_59cd8d|33|-4 63,55,18,0,0,0,0,0,1,0,1,0,2,0,2,142,
scooby_state_59cdee|56|1 6,2,0,1,0,1,1,0,2,1,0,0,1,0,127,142,
scooby_state_59cdcb|7|1 142,0,0,0,0,0,0,0,0,0,0,0,0,0,0,142,
scooby_state_59cdcf|12|1 13,7,0,0,0,1,0,0,0,2,0,0,117,0,2,142,
scooby_state_59cdcb|9|1 141,0,0,0,0,0,0,0,0,0,0,0,0,0,0,141,
scooby_state_59cde2|49|0 134,1,1,0,0,0,0,0,1,0,0,0,2,1,1,141,
scooby_state_59cdbf|43|0 141,0,0,0,0,0,0,0,0,0,0,0,0,0,0,141,
scooby_state_59cdcb|53|1 141,0,0,0,0,0,0,0,0,0,0,0,0,0,0,141,
scooby_state_59cd8d|14|-4 53,61,21,2,0,1,2,0,0,0,0,0,0,0,1,141,
scooby_state_59cdee|35|1 6,2,0,0,0,0,0,2,1,1,2,1,2,1,123,141,
scooby_state_59cdcf|1|-1 2,0,1,0,0,0,0,0,0,0,0,0,136,1,1,141,
scooby_state_59cde2|28|0 128,0,1,0,0,1,0,0,1,1,2,1,2,1,3,141,
scooby_state_59cdcb|18|1 140,0,0,0,0,0,0,1,0,0,0,0,0,0,0,141,
scooby_state_59cd8d|52|0 132,4,0,0,1,0,1,1,0,0,0,0,1,0,1,141,
scooby_state_59cdcf|22|1 13,13,2,1,0,0,0,1,0,1,0,0,108,0,1,140,
scooby_state_59d4e0|49|1 97,7,0,2,3,3,2,1,0,0,6,3,1,2,13,140,
scooby_state_59cdbf|39|0 140,0,0,0,0,0,0,0,0,0,0,0,0,0,0,140,
scooby_state_59cde2|57|0 138,0,0,0,0,0,0,0,0,0,0,0,1,0,1,140,
scooby_state_59cdcb|12|1 140,0,0,0,0,0,0,0,0,0,0,0,0,0,0,140,
scooby_state_59cd8d|47|-4 93,27,17,1,0,0,0,0,0,0,0,1,1,0,0,140,
scooby_state_59cdee|14|1 9,2,0,2,0,1,1,0,0,1,1,0,1,2,119,139,
scooby_state_59cdbf|13|1 139,0,0,0,0,0,0,0,0,0,0,0,0,0,0,139,
scooby_state_59cdee|42|1 11,1,2,1,1,0,1,2,2,1,1,0,0,1,115,139,
scooby_state_59cdbf|3|0 139,0,0,0,0,0,0,0,0,0,0,0,0,0,0,139,
scooby_state_59cdcf|56|1 4,13,0,0,0,0,0,2,0,0,0,0,120,0,0,139,
scooby_state_59d4e0|15|1 101,17,0,2,1,0,2,3,2,1,0,1,2,1,6,139,
scooby_state_59cdcb|33|1 138,0,0,0,0,0,0,0,0,0,0,0,0,0,0,138,
scooby_state_59cdcf|11|1 5,6,0,2,1,0,0,0,0,0,1,0,122,1,0,138,
scooby_state_59cdbf|54|0 137,0,0,0,0,0,0,0,0,1,0,0,0,0,0,138,
scooby_state_59cdcf|32|1 19,6,2,0,0,0,2,0,2,0,0,0,107,0,0,138,
scooby_state_59cde2|15|0 129,0,1,0,1,0,1,1,0,1,0,2,2,0,0,138,
scooby_state_59cdcb|43|1 138,0,0,0,0,0,0,0,0,0,0,0,0,0,0,138,
scooby_state_59cdee|62|1 10,1,2,0,0,1,3,0,0,1,0,1,0,0,118,137,
scooby_state_59cd8d|49|-4 66,50,19,0,0,0,0,1,0,0,0,0,0,0,1,137,
scooby_state_59cdcf|37|-1 1,0,1,1,0,0,0,0,0,0,0,0,134,0,0,137,
scooby_state_59cdee|7|1 5,1,2,3,1,2,1,1,1,1,1,0,1,1,116,137,
scooby_state_59cd8d|26|-4 59,45,29,0,0,0,1,0,0,0,0,0,2,0,1,137,
scooby_state_59cdbf|29|0 137,0,0,0,0,0,0,0,0,0,0,0,0,0,0,137,
scooby_state_59cdcb|40|1 136,0,0,1,0,0,0,0,0,0,0,0,0,0,0,137,
scooby_state_59cd8d|44|-4 56,46,28,0,0,1,0,1,0,0,1,0,1,0,3,137,
scooby_state_59cde2|53|0 131,0,0,0,0,0,0,0,0,1,1,0,4,0,0,137,
scooby_state_59cde2|34|0 127,3,0,0,0,0,0,0,1,0,0,0,1,2,2,136,
scooby_state_59cde2|6|0 129,0,1,1,0,0,0,1,0,3,0,0,1,0,0,136,
scooby_state_59cdee|36|1 4,1,1,0,0,0,0,0,1,1,0,1,2,1,124,136,
scooby_state_59cdf2|17|2 6,77,0,0,0,0,0,1,1,0,0,50,1,0,0,136,
scooby_state_59cdee|63|1 8,2,0,1,1,1,0,0,0,1,2,2,0,1,116,135,
scooby_state_59cdee|41|1 6,0,2,4,2,0,4,0,0,1,0,0,0,2,114,135,
scooby_state_59cde2|17|0 131,1,0,0,0,1,0,0,0,0,1,0,0,0,1,135,
scooby_state_59cdcf|39|-1 0,0,0,0,0,0,0,0,0,0,1,0,133,0,1,135,
scooby_state_59cde2|33|0 132,0,0,0,0,0,0,0,0,0,0,0,2,0,1,135,
scooby_state_59cdcf|62|1 9,10,2,1,0,1,0,0,0,1,0,0,106,2,2,134,
scooby_state_59cdbf|30|0 134,0,0,0,0,0,0,0,0,0,0,0,0,0,0,134,
scooby_state_59cdbf|35|0 134,0,0,0,0,0,0,0,0,0,0,0,0,0,0,134,
scooby_state_59cdee|58|1 9,3,2,1,1,0,1,1,2,1,0,4,1,1,106,133,
scooby_state_59cdf2|2|2 5,79,0,0,0,0,0,1,0,0,0,45,2,0,1,133,
scooby_state_59cd8d|22|-4 55,48,26,1,0,0,0,0,0,0,1,0,0,1,1,133,
scooby_state_59d4e0|37|1 84,16,2,4,2,2,1,1,1,0,2,3,1,2,12,133,
scooby_state_59cdcb|4|1 133,0,0,0,0,0,0,0,0,0,0,0,0,0,0,133,
scooby_state_59cdcf|47|1 10,18,0,0,0,1,0,1,1,0,0,1,100,0,0,132,
scooby_state_59cd8d|59|0 125,3,0,0,0,0,0,0,0,0,0,1,0,0,3,132,
scooby_state_59cde2|47|0 127,0,2,0,0,0,1,0,1,0,1,0,0,0,0,132,
scooby_state_59d4d1|6|0 105,1,2,2,2,1,5,1,3,0,1,1,1,0,7,132,
scooby_state_59cd8d|12|-4 68,40,14,2,1,2,0,0,0,0,0,0,0,0,4,131,
scooby_state_59cd8d|13|-4 54,49,22,2,0,1,2,0,0,0,0,0,0,0,1,131,
scooby_state_59cdcf|18|-1 1,0,0,0,0,0,0,0,0,0,0,0,129,1,0,131,
scooby_state_59cdcf|29|1 9,6,2,1,0,0,0,0,0,1,0,0,111,0,0,130,
scooby_state_59d4e0|35|1 87,19,3,2,2,1,1,3,0,1,1,0,2,0,8,130,
scooby_state_59cde2|38|0 127,0,0,1,0,0,1,0,0,0,0,0,1,0,0,130,
scooby_state_59cdee|16|1 3,1,2,0,1,2,2,0,0,1,0,1,0,2,115,130,
scooby_state_59cdee|60|1 9,0,0,0,1,0,0,1,2,1,0,2,0,0,114,130,
scooby_state_59cdee|27|1 6,0,0,1,0,1,2,0,2,0,3,1,0,2,112,130,
scooby_state_59cdbf|41|0 130,0,0,0,0,0,0,0,0,0,0,0,0,0,0,130,
scooby_state_59cde2|36|0 121,1,1,0,0,1,1,0,2,0,0,0,1,1,1,130,
scooby_state_59cde2|13|0 128,0,0,1,0,0,0,0,0,0,0,0,0,0,1,130,
scooby_state_59cdcb|36|1 129,0,1,0,0,0,0,0,0,0,0,0,0,0,0,130,
scooby_state_59d4d1|13|0 103,1,2,2,2,2,1,0,3,0,1,2,2,3,6,130,
scooby_state_59cdcf|23|1 9,13,0,0,0,0,0,1,0,0,0,0,106,0,0,129,
scooby_state_59cdcb|26|1 129,0,0,0,0,0,0,0,0,0,0,0,0,0,0,129,
scooby_state_59cdbf|34|0 129,0,0,0,0,0,0,0,0,0,0,0,0,0,0,129,
scooby_state_59cdcf|13|-1 1,0,0,0,0,0,0,0,0,1,0,0,127,0,0,129,
scooby_state_59cdcf|29|-1 0,0,0,1,0,0,0,0,0,0,0,0,127,0,0,128,
scooby_state_59cd8d|4|-4 54,39,30,0,0,0,0,0,0,1,0,1,2,0,1,128,
scooby_state_59cdcb|15|1 128,0,0,0,0,0,0,0,0,0,0,0,0,0,0,128,
scooby_state_59cdcf|7|1 7,5,0,0,2,0,0,1,0,0,0,1,112,0,0,128,
scooby_state_59cdcf|41|1 9,10,0,2,0,0,0,0,0,0,1,0,106,0,0,128,
scooby_state_59cdee|45|1 6,3,1,2,0,1,0,2,0,0,0,0,1,1,111,128,
scooby_state_59cdcf|20|1 15,10,1,0,0,1,0,1,0,0,0,0,99,0,0,127,
scooby_state_59cdcf|36|-1 1,0,0,0,1,0,0,1,0,0,0,0,124,0,0,127,
scooby_state_59cd8d|16|-4 68,43,13,0,0,2,0,0,0,0,0,0,0,0,1,127,
scooby_state_59cde2|24|0 121,0,0,0,0,0,1,0,0,0,0,1,3,1,0,127,
scooby_state_59d4e0|47|1 93,6,1,1,0,1,1,5,2,3,1,1,1,1,9,126,
scooby_state_59cdcf|43|1 8,3,0,0,0,0,0,0,0,0,0,0,114,1,0,126,
scooby_state_59d4d1|46|0 99,2,5,4,0,0,1,1,1,4,0,3,1,2,3,126,
scooby_state_59cdcb|50|1 126,0,0,0,0,0,0,0,0,0,0,0,0,0,0,126,
scooby_state_59cd8d|40|-4 80,30,12,2,1,0,0,0,0,0,0,0,1,0,0,126,
scooby_state_59cdbf|15|0 126,0,0,0,0,0,0,0,0,0,0,0,0,0,0,126,
scooby_state_59cdbf|21|0 126,0,0,0,0,0,0,0,0,0,0,0,0,0,0,126,
scooby_state_59cdcb|46|1 125,0,0,0,0,0,0,0,0,0,0,0,0,0,0,125,
scooby_state_59cdbf|23|0 124,0,0,0,0,1,0,0,0,0,0,0,0,0,0,125,
scooby_state_59cdee|44|1 7,0,1,1,0,1,0,1,2,0,1,1,2,0,108,125,
scooby_state_59cd8d|60|0 118,5,0,0,0,0,0,0,0,0,0,0,0,1,1,125,
scooby_state_59cde2|31|0 120,0,0,0,1,0,0,0,0,1,0,0,3,0,0,125,
scooby_state_59cd8d|23|-4 78,29,13,0,0,1,0,0,0,0,0,0,2,1,1,125,
scooby_state_59cde2|12|0 120,1,0,0,0,1,0,0,0,0,0,0,1,0,1,124,
scooby_state_59d4d1|45|0 99,1,2,1,1,3,4,3,0,2,0,0,1,1,6,124,
scooby_state_59cdbf|10|0 123,0,0,0,0,0,0,0,1,0,0,0,0,0,0,124,
scooby_state_59cde2|44|0 110,1,1,1,2,2,2,0,1,0,1,2,0,0,1,124,
scooby_state_59d4d1|63|0 98,2,4,3,3,2,1,2,0,1,1,2,2,1,2,124,
scooby_state_59d4d1|62|0 97,1,1,1,3,0,2,1,0,0,2,2,2,2,9,123,
scooby_state_59cdcf|56|-1 1,0,0,0,0,0,1,0,0,0,0,0,121,0,0,123,
scooby_state_59cd8d|38|-4 59,41,17,1,0,0,0,0,0,1,0,0,0,0,4,123,
scooby_state_59cde2|50|0 121,0,1,0,0,0,0,0,0,0,0,0,0,0,1,123,
scooby_state_59cdbf|8|0 123,0,0,0,0,0,0,0,0,0,0,0,0,0,0,123,
scooby_state_59cdbf|50|0 123,0,0,0,0,0,0,0,0,0,0,0,0,0,0,123,
scooby_state_59cdf2|12|2 7,75,0,0,0,0,0,0,0,0,0,39,2,0,0,123,
scooby_state_59cdcf|21|1 14,6,0,0,1,0,1,1,1,1,0,0,98,0,0,123,
scooby_state_59cdbf|22|0 123,0,0,0,0,0,0,0,0,0,0,0,0,0,0,123,
scooby_state_59cdcf|54|-1 0,0,0,0,1,0,0,0,0,0,1,1,120,0,0,123,
scooby_state_59cde2|41|0 113,1,1,0,1,1,2,1,0,1,0,2,0,0,0,123,
scooby_state_59d4d1|0|0 91,0,0,2,2,2,1,5,0,0,3,6,2,4,5,123,
scooby_state_59cdcf|61|1 12,6,0,1,0,0,0,0,0,0,2,1,99,1,0,122,
scooby_state_59cde2|26|0 122,0,0,0,0,0,0,0,0,0,0,0,0,0,0,122,
scooby_state_59cd8d|33|0 100,15,0,0,2,1,1,0,0,0,1,0,0,0,2,122,
scooby_state_59cd8d|35|-4 42,47,27,0,0,1,0,0,0,0,0,0,1,0,3,121,
scooby_state_59cdbf|51|0 121,0,0,0,0,0,0,0,0,0,0,0,0,0,0,121,
scooby_state_59cdf2|38|2 3,68,1,0,0,0,0,1,0,0,0,47,0,0,1,121,
scooby_state_59cdf2|40|2 7,55,0,0,0,0,0,1,0,0,1,57,0,0,0,121,
scooby_state_59cdcb|56|1 119,0,0,0,0,0,0,0,0,1,0,0,0,0,0,120,
scooby_state_59cdcf|15|1 10,8,0,1,0,0,0,0,0,0,0,0,101,0,0,120,
scooby_state_59cdee|26|1 3,2,3,4,0,1,0,2,2,1,2,0,0,0,100,120,
scooby_state_59cdcb|62|1 120,0,0,0,0,0,0,0,0,0,0,0,0,0,0,120,
scooby_state_5010bb|0|0 94,25,0,0,1,0,0,0,0,0,0,0,0,0,0,120,
scooby_state_59cdbf|16|0 120,0,0,0,0,0,0,0,0,0,0,0,0,0,0,120,
scooby_state_59cdbf|53|0 120,0,0,0,0,0,0,0,0,0,0,0,0,0,0,120,
scooby_state_59cdcf|48|1 14,10,1,0,1,1,1,0,0,0,1,0,90,0,0,119,
scooby_state_59cdcb|57|1 119,0,0,0,0,0,0,0,0,0,0,0,0,0,0,119,
scooby_state_59cde2|55|0 113,0,0,1,0,0,0,1,0,0,0,0,4,0,0,119,
scooby_state_59cdcf|55|1 12,15,3,1,0,0,0,0,0,0,0,0,87,1,0,119,
scooby_state_59cdbf|9|0 119,0,0,0,0,0,0,0,0,0,0,0,0,0,0,119,
scooby_state_59cdcf|60|1 11,6,0,0,0,0,0,0,1,0,0,0,100,1,0,119,
scooby_state_59cdbf|60|0 118,0,0,0,0,0,0,0,0,0,0,0,0,0,0,118,
scooby_state_59cdcb|37|1 118,0,0,0,0,0,0,0,0,0,0,0,0,0,0,118,
scooby_state_59d4e0|43|1 65,24,1,1,0,3,0,0,4,1,1,1,4,5,8,118,
scooby_state_59cdbf|55|0 117,0,0,0,0,0,0,0,0,1,0,0,0,0,0,118,
scooby_state_59d4e0|14|1 90,6,1,0,0,0,5,2,0,1,3,2,0,0,8,118,
scooby_state_59cdcb|52|1 117,0,0,0,0,0,0,0,0,0,0,1,0,0,0,118,
scooby_state_59cdee|5|1 13,0,1,0,1,0,1,0,1,0,1,0,0,1,99,118,
scooby_state_59cdee|6|1 8,2,2,0,0,2,1,0,0,1,0,0,1,3,98,118,
scooby_state_59cd8d|4|0 105,5,0,1,1,0,0,0,1,0,0,1,2,0,2,118,
scooby_state_59d4e0|38|1 71,18,1,1,1,1,3,0,2,0,0,6,3,4,7,118,
scooby_state_59d4e0|10|1 72,18,0,5,2,1,0,2,0,4,1,2,0,2,9,118,
scooby_state_59cd8d|56|0 103,7,3,0,0,1,0,0,1,0,0,0,1,0,1,117,
scooby_state_59d4e0|45|1 74,17,0,2,1,2,2,1,1,1,0,1,3,4,8,117,
scooby_state_59cdcf|4|-1 0,0,0,0,0,0,0,0,0,0,0,0,116,0,1,117,
scooby_state_59cdcf|51|1 2,10,0,0,0,0,0,0,0,0,0,0,103,2,0,117,
scooby_state_59cdee|2|1 11,1,2,1,0,0,1,0,1,1,0,0,1,0,98,117,
scooby_state_59cdcf|30|1 12,10,4,0,0,0,1,0,0,1,0,1,88,0,0,117,
scooby_state_59cde2|58|0 113,1,0,1,0,0,0,0,0,0,1,0,0,0,1,117,
scooby_state_59cdcf|30|-1 0,0,0,0,1,0,0,0,1,0,1,1,112,0,1,117,
scooby_state_59cdee|30|1 6,0,0,0,0,0,2,2,2,1,0,2,1,1,100,117,
scooby_state_59cdee|15|1 4,1,0,1,0,1,0,0,3,0,0,1,2,1,103,117,
scooby_state_59d4e0|21|1 88,12,0,1,2,1,1,3,1,1,0,0,1,1,5,117,
scooby_state_59cdee|57|1 6,0,0,0,1,2,1,0,1,0,1,0,0,0,104,116,
scooby_state_59cdb0|31|1 89,2,1,0,1,0,1,0,0,0,1,3,2,0,16,116,
scooby_state_59cd8d|50|0 103,10,0,0,0,0,1,0,0,0,0,0,0,0,2,116,
scooby_state_59cdbf|56|0 116,0,0,0,0,0,0,0,0,0,0,0,0,0,0,116,
scooby_state_59cdee|20|1 7,1,0,0,1,2,1,0,1,2,1,1,1,0,98,116,
scooby_state_59cdcf|38|1 6,10,1,0,0,0,1,1,1,1,0,0,95,0,0,116,
scooby_state_59cdcb|44|1 115,0,0,0,0,0,0,0,0,0,0,0,0,0,0,115,
scooby_state_59d4d1|59|0 88,3,0,6,3,0,2,3,1,2,1,1,1,2,2,115,
scooby_state_59cd8d|4|-5 112,0,0,0,0,3,0,0,0,0,0,0,0,0,0,115,
scooby_state_59cde2|16|0 100,0,1,1,1,0,0,2,0,0,0,1,3,1,5,115,
scooby_state_59d4e0|9|1 82,8,3,0,3,1,1,2,1,3,1,1,0,0,9,115,
scooby_state_59cdcf|31|1 11,9,0,0,0,1,0,0,0,2,0,0,92,0,0,115,
scooby_state_59cdbf|61|0 114,0,0,0,0,0,0,0,0,0,0,0,0,0,0,114,
scooby_state_59cdcf|38|-1 0,0,1,0,0,0,0,0,0,0,0,1,111,0,1,114,
scooby_state_59cdcf|34|1 10,9,2,1,0,0,0,0,1,2,0,0,88,0,1,114,
scooby_state_59d4e0|25|1 77,19,2,2,1,1,0,0,0,1,1,3,1,1,5,114,
scooby_state_59cdee|37|1 4,1,0,1,1,1,2,2,0,2,0,1,1,2,95,113,
scooby_state_59cdee|53|1 9,2,0,1,1,1,1,1,0,1,1,0,1,1,93,113,
scooby_state_59cdcb|14|1 113,0,0,0,0,0,0,0,0,0,0,0,0,0,0,113,
scooby_state_59d4d1|36|0 92,3,1,1,2,2,1,0,1,1,1,0,2,2,4,113,
scooby_state_59cdbf|58|0 113,0,0,0,0,0,0,0,0,0,0,0,0,0,0,113,
scooby_state_59d4e0|19|1 73,20,2,3,1,1,0,2,0,1,0,0,0,2,7,112,
scooby_state_59d4e0|31|1 71,13,2,0,2,1,1,3,1,1,2,1,2,1,11,112,
scooby_state_59cd8d|37|0 97,6,0,0,1,0,0,1,1,0,0,1,2,0,3,112,
scooby_state_59cd8d|2|0 99,8,0,1,0,0,1,1,1,0,0,0,0,0,1,112,
scooby_state_59cdf2|5|2 8,66,0,0,0,0,0,0,0,0,0,38,0,0,0,112,
scooby_state_59d4d1|58|0 96,2,0,3,1,1,0,1,0,0,0,2,3,0,3,112,
scooby_state_59cdee|17|1 8,0,0,1,0,0,1,1,0,2,1,2,2,0,94,112,
scooby_state_59d4e0|52|1 84,8,1,3,2,0,0,1,4,0,1,2,3,0,3,112,
scooby_state_59d4e0|50|1 66,15,2,4,1,2,1,0,4,0,0,3,2,4,8,112,
scooby_state_59cd8d|62|0 93,11,2,0,1,0,0,1,1,0,0,0,1,1,1,112,
scooby_state_59cd8d|6|-5 110,0,0,0,0,1,0,0,0,0,0,0,0,0,0,111,
scooby_state_59cdcf|23|-1 0,0,0,0,0,0,0,1,0,1,0,0,109,0,0,111,
scooby_state_59cdcf|59|1 12,9,0,1,0,1,1,0,0,0,0,0,87,0,0,111,
scooby_state_59cdbf|26|0 111,0,0,0,0,0,0,0,0,0,0,0,0,0,0,111,
scooby_state_59d4e0|3|1 78,13,3,2,1,1,0,1,3,1,2,1,1,1,3,111,
scooby_state_59d4e0|13|1 74,7,1,2,1,0,3,1,1,2,1,5,5,0,8,111,
scooby_state_59cdcb|45|1 111,0,0,0,0,0,0,0,0,0,0,0,0,0,0,111,
scooby_state_59cdcf|43|-1 0,1,0,1,0,0,0,0,0,0,0,0,109,0,0,111,
scooby_state_59cdbf|44|0 111,0,0,0,0,0,0,0,0,0,0,0,0,0,0,111,
scooby_state_59cdcf|27|-1 0,0,0,0,1,0,0,0,1,0,0,0,109,0,0,111,
scooby_state_59cd8d|1|-5 109,0,0,0,0,1,0,0,0,0,0,0,0,0,0,110,
scooby_state_59cdbf|31|0 110,0,0,0,0,0,0,0,0,0,0,0,0,0,0,110,
scooby_state_59cdcf|5|-1 0,0,0,2,0,0,0,0,0,0,0,0,108,0,0,110,
scooby_state_59cdee|22|1 8,0,0,2,1,0,1,1,3,1,0,0,1,0,92,110,
scooby_state_59cdee|48|1 8,1,1,0,1,0,0,0,0,1,0,0,2,0,96,110,
scooby_state_59cdcf|2|1 6,8,0,0,0,0,0,0,0,0,0,0,96,0,0,110,
scooby_state_59cdcf|8|1 16,12,1,0,0,0,0,0,2,0,1,2,76,0,0,110,
scooby_state_59cdcf|8|-1 0,0,1,2,0,0,0,0,0,0,0,0,107,0,0,110,
scooby_state_59d4e0|30|1 65,15,6,0,0,2,1,1,1,3,0,1,2,2,10,109,
scooby_state_59cdf2|14|2 7,68,1,0,2,0,0,0,0,0,0,31,0,0,0,109,
scooby_state_59cde2|32|0 104,2,0,1,1,0,0,0,0,0,0,0,1,0,0,109,
scooby_state_59cdcf|53|1 11,6,0,0,1,0,0,0,2,0,0,0,88,1,0,109,
scooby_state_59cde2|14|0 101,0,0,0,0,0,0,0,0,0,0,0,8,0,0,109,
scooby_state_59cdf2|9|2 5,59,0,0,1,0,1,1,0,0,0,37,3,1,0,108,
scooby_state_59cdcf|13|1 8,11,0,0,0,0,0,1,0,0,0,0,88,0,0,108,
scooby_state_59cd8d|28|-5 106,0,0,0,0,2,0,0,0,0,0,0,0,0,0,108,
scooby_state_59cdcf|10|1 4,5,1,0,0,0,0,0,0,0,0,0,98,0,0,108,
scooby_state_59cdb0|48|1 75,1,0,0,2,0,2,4,0,0,0,2,0,1,21,108,
scooby_state_59d4e0|20|1 77,12,0,1,0,2,4,1,0,0,0,1,1,4,5,108,
scooby_state_59cdee|43|1 10,1,0,2,0,0,0,1,3,1,0,0,2,1,87,108,
scooby_state_59cdcf|17|-1 0,0,0,0,0,0,1,1,0,0,0,0,106,0,0,108,
scooby_state_59cdcf|24|1 3,3,1,0,0,0,0,0,0,0,0,0,100,0,0,107,
scooby_state_59d4e0|16|1 64,22,0,2,2,1,2,1,0,0,0,2,1,2,8,107,
scooby_state_59cd8d|45|0 93,11,0,0,1,0,1,0,0,0,0,0,0,0,1,107,
scooby_state_59d4e0|34|1 70,13,3,4,1,0,3,0,1,1,0,1,2,4,4,107,
scooby_state_59cdcf|3|1 9,12,0,1,0,0,0,0,0,0,0,0,85,0,0,107,
scooby_state_59d4e0|6|1 74,8,1,2,1,1,4,1,1,0,4,0,2,0,8,107,
scooby_state_59cdcf|25|-1 0,0,0,1,0,0,0,1,0,0,0,0,104,0,1,107,
scooby_state_59cdbf|59|0 106,0,0,0,0,0,0,0,0,0,0,0,0,0,0,106,
scooby_state_59cdb0|38|1 87,0,0,2,0,2,0,0,0,0,0,0,0,0,15,106,
scooby_state_59cdcf|53|-1 0,0,0,0,0,0,0,0,0,0,0,0,105,0,1,106,
scooby_state_59cdcf|25|1 15,2,0,1,1,0,0,0,1,0,1,0,82,1,1,105,
scooby_state_59cd8d|27|0 93,6,0,0,0,1,1,1,0,0,0,0,0,1,2,105,
scooby_state_59cdee|54|1 4,2,0,0,1,0,2,0,2,1,0,3,1,1,88,105,
scooby_state_59cde2|21|0 93,1,0,0,0,1,1,0,2,1,1,0,5,0,0,105,
scooby_state_59d4d1|43|0 79,1,2,2,1,1,1,2,1,3,1,5,1,0,5,105,
scooby_state_59cd8d|55|-5 103,0,0,0,0,2,0,0,0,0,0,0,0,0,0,105,
scooby_state_59cd8d|51|0 92,9,0,0,1,0,0,0,0,0,0,0,1,1,1,105,
scooby_state_59cd8d|8|0 91,6,2,0,0,0,0,0,0,0,0,3,1,2,0,105,
scooby_state_59d4e0|39|1 61,20,0,0,2,2,1,1,2,0,1,2,1,3,9,105,
scooby_state_59cdcf|44|-1 0,0,0,0,0,0,0,0,0,0,0,0,105,0,0,105,
scooby_state_59d4e0|5|1 61,18,1,1,2,1,5,1,3,0,0,1,0,1,10,105,
scooby_state_59cdee|13|1 4,1,5,2,0,0,0,1,0,1,0,0,0,1,89,104,
scooby_state_59cdee|3|1 2,0,1,1,0,0,0,1,0,0,0,3,1,1,94,104,
scooby_state_59d4d1|15|0 77,1,0,2,3,1,2,1,3,3,1,0,2,2,6,104,
scooby_state_59cd8d|42|0 94,8,0,0,0,1,0,0,1,0,0,0,0,0,0,104,
scooby_state_59cdcf|33|1 7,8,0,0,0,0,0,0,0,0,0,0,88,1,0,104,
scooby_state_59cdcf|59|-1 0,0,0,0,0,0,0,0,0,2,0,0,101,0,1,104,
scooby_state_59cd8d|19|0 97,5,0,0,0,0,0,0,0,0,1,0,1,0,0,104,
scooby_state_59d4e0|46|1 69,6,3,1,1,1,2,2,1,3,0,0,2,5,8,104,
scooby_state_59d4e0|22|1 69,15,0,3,0,3,3,0,1,2,0,1,1,2,4,104,
scooby_state_59cdcf|35|1 9,7,0,1,0,0,0,0,0,0,0,0,87,0,0,104,
scooby_state_59cde2|46|0 94,0,1,0,0,1,1,0,1,0,2,0,3,0,1,104,
scooby_state_59d4d1|4|0 77,1,0,3,1,3,3,0,1,0,0,2,4,1,7,103,
scooby_state_59cd8d|53|-5 99,0,0,0,0,3,0,0,0,1,0,0,0,0,0,103,
scooby_state_59cdf2|26|2 6,57,0,1,0,1,0,0,0,1,0,34,0,1,2,103,
scooby_state_59cdcf|14|1 6,4,2,0,0,0,0,0,0,0,0,0,91,0,0,103,
scooby_state_59cdcf|27|1 4,4,1,1,0,0,0,0,1,0,0,0,92,0,0,103,
scooby_state_59cdcf|36|1 8,5,2,1,0,0,0,0,1,1,0,1,83,0,1,103,
scooby_state_59cd8d|36|0 92,8,0,1,0,0,1,0,0,1,0,0,0,0,0,103,
scooby_state_59d4e0|42|1 64,10,2,3,1,1,1,3,0,0,1,3,1,0,12,102,
scooby_state_59cdcf|44|1 14,15,1,0,0,0,0,0,0,0,0,1,70,0,1,102,
scooby_state_59cdcf|9|-1 1,0,1,0,1,0,0,0,0,0,0,0,99,0,0,102,
scooby_state_59cd8d|17|0 88,11,0,0,0,1,1,1,0,0,0,0,0,0,0,102,
scooby_state_59cde2|40|0 97,1,0,1,1,0,0,0,0,0,1,0,0,0,1,102,
scooby_state_59cdcf|37|1 13,9,1,1,0,1,0,0,0,0,0,0,76,0,0,101,
scooby_state_59cdbf|32|0 101,0,0,0,0,0,0,0,0,0,0,0,0,0,0,101,
scooby_state_59cdf2|19|2 5,66,1,0,0,1,0,0,0,0,0,27,0,0,1,101,
scooby_state_59cdbf|19|0 101,0,0,0,0,0,0,0,0,0,0,0,0,0,0,101,
scooby_state_59cdb0|46|1 88,0,0,0,0,0,0,0,0,0,1,0,0,0,11,100,
scooby_state_59cdcf|28|1 10,7,0,0,0,0,2,0,0,0,0,0,81,0,0,100,
scooby_state_59cdbf|27|0 99,0,0,0,0,0,1,0,0,0,0,0,0,0,0,100,
scooby_state_59cdb0|43|1 82,0,1,0,0,1,0,1,1,0,0,0,1,0,13,100,
scooby_state_59cde2|11|0 94,1,0,0,0,1,0,0,3,0,0,0,1,0,0,100,
scooby_state_59cdbf|40|0 100,0,0,0,0,0,0,0,0,0,0,0,0,0,0,100,
scooby_state_59cdbf|36|0 100,0,0,0,0,0,0,0,0,0,0,0,0,0,0,100,
scooby_state_59cdf2|28|2 10,40,0,0,1,0,0,0,1,0,0,47,1,0,0,100,
scooby_state_59cdcf|40|1 10,10,1,1,1,0,0,0,0,0,0,0,76,0,0,99,
scooby_state_59cde2|35|0 94,0,0,1,0,1,1,0,0,0,0,0,0,2,0,99,
scooby_state_59cdf2|6|2 4,50,2,0,0,0,0,2,0,0,0,41,0,0,0,99,
scooby_state_59cdcf|4|1 5,8,0,0,0,0,0,0,0,0,0,0,86,0,0,99,
scooby_state_59d4e0|33|1 57,18,1,1,0,1,2,1,0,2,2,2,2,0,10,99,
scooby_state_59cdbf|37|0 99,0,0,0,0,0,0,0,0,0,0,0,0,0,0,99,
scooby_state_59cdee|23|1 6,1,0,3,1,2,1,0,0,0,0,0,0,2,83,99,
scooby_state_59cdcf|49|1 8,9,1,0,1,0,0,0,0,2,0,0,78,0,0,99,
scooby_state_59d4d1|32|0 76,0,2,3,2,0,0,0,3,3,0,2,2,0,6,99,
scooby_state_59cdbf|62|0 98,0,0,0,0,0,0,0,0,0,0,0,0,0,0,98,
scooby_state_59cdcf|7|-1 0,0,0,1,1,0,0,0,0,0,0,0,96,0,0,98,
scooby_state_59d4e0|2|1 66,11,4,2,3,2,0,0,0,0,2,2,1,0,5,98,
scooby_state_4c3be0|47|0 98,0,0,0,0,0,0,0,0,0,0,0,0,0,0,98,
scooby_state_59cd89|1|1 98,0,0,0,0,0,0,0,0,0,0,0,0,0,0,98,
scooby_state_59cdcf|1|1 8,11,1,0,0,0,0,1,1,1,0,0,75,0,0,98,
scooby_state_59cd89|0|0 98,0,0,0,0,0,0,0,0,0,0,0,0,0,0,98,
scooby_state_59cd8d|61|-1 92,0,0,1,0,0,1,0,0,0,1,1,0,1,1,98,
scooby_state_59cdbf|38|0 98,0,0,0,0,0,0,0,0,0,0,0,0,0,0,98,
scooby_state_59d4e0|12|1 77,3,1,1,1,0,3,1,0,0,1,1,3,0,6,98,
scooby_state_59cdcf|33|-1 0,0,0,0,0,0,0,1,0,0,1,0,96,0,0,98,
scooby_state_59cdf2|57|2 17,51,0,0,0,0,0,0,0,0,0,28,2,0,0,98,
scooby_state_59d4e0|44|1 56,16,2,3,2,1,2,1,1,0,1,1,1,1,10,98,
scooby_state_59cd8d|35|0 84,8,0,0,1,0,0,0,0,1,0,1,0,1,2,98,
scooby_state_59cdcf|35|-1 2,1,0,0,0,0,0,0,0,0,0,0,95,0,0,98,
scooby_state_59cd8d|28|0 85,7,0,0,0,0,1,0,1,0,0,0,0,1,3,98,
scooby_state_59cde2|43|0 91,0,0,1,0,0,1,0,0,1,0,0,3,0,0,97,
scooby_state_59cdcf|5|1 5,8,0,1,0,2,1,0,0,0,0,0,79,0,1,97,
scooby_state_59cdcf|52|-1 0,0,0,2,0,1,0,0,0,0,0,0,94,0,0,97,
scooby_state_59d4e0|24|1 69,12,0,1,0,1,1,0,0,1,0,2,4,0,6,97,
scooby_state_59cdcb|10|1 96,0,0,0,0,0,0,0,0,0,0,0,0,0,0,96,
scooby_state_59cd8d|7|-6 95,0,0,0,0,1,0,0,0,0,0,0,0,0,0,96,
scooby_state_59cd89|3|1 96,0,0,0,0,0,0,0,0,0,0,0,0,0,0,96,
scooby_state_59d4e0|54|1 67,9,0,1,2,1,3,0,0,0,0,4,3,0,6,96,
scooby_state_59cdb0|21|1 74,1,2,2,0,0,1,0,1,0,2,0,0,0,13,96,
scooby_state_59cd8d|18|0 75,13,0,0,0,1,0,0,0,1,0,4,0,1,1,96,
scooby_state_59cdbf|13|0 96,0,0,0,0,0,0,0,0,0,0,0,0,0,0,96,
scooby_state_59cd8d|16|0 90,3,0,1,0,0,1,1,0,0,0,0,0,0,0,96,
scooby_state_59cdb0|28|1 65,0,1,0,2,3,0,1,0,1,1,0,0,1,21,96,
scooby_state_59cd89|2|1 96,0,0,0,0,0,0,0,0,0,0,0,0,0,0,96,
scooby_state_59cd8d|26|0 87,4,0,0,0,0,0,0,0,0,1,1,0,2,1,96,
scooby_state_59cdee|38|1 6,1,2,0,0,0,1,1,3,0,1,2,0,1,78,96,
scooby_state_59cdcf|34|-1 0,0,0,0,0,0,0,0,0,0,0,0,95,0,1,96,
scooby_state_59d4e0|55|1 50,21,2,1,0,2,1,0,0,2,2,5,1,2,7,96,
scooby_state_59cdee|21|1 5,0,1,0,0,0,2,0,3,0,0,1,1,0,82,95,
scooby_state_59cdf2|10|2 7,50,1,0,0,0,0,1,0,0,0,35,1,0,0,95,
scooby_state_59cdee|9|1 0,1,0,1,1,0,0,1,2,1,0,1,0,1,86,95,
scooby_state_59cd89|5|1 95,0,0,0,0,0,0,0,0,0,0,0,0,0,0,95,
scooby_state_59cd8d|58|-5 93,0,0,0,0,2,0,0,0,0,0,0,0,0,0,95,
scooby_state_59cdbf|47|0 95,0,0,0,0,0,0,0,0,0,0,0,0,0,0,95,
scooby_state_59cde2|25|0 92,0,0,0,1,0,1,0,1,0,0,0,0,0,0,95,
scooby_state_59cd8d|55|0 82,6,1,1,0,1,1,1,0,0,1,1,0,0,0,95,
scooby_state_4c6720|28|0 53,42,0,0,0,0,0,0,0,0,0,0,0,0,0,95,
scooby_state_7b50e4|15|0 10,85,0,0,0,0,0,0,0,0,0,0,0,0,0,95,
scooby_state_59d4d1|7|0 74,4,2,4,1,2,0,1,2,0,1,0,1,0,3,95,
scooby_state_59cdbf|20|0 95,0,0,0,0,0,0,0,0,0,0,0,0,0,0,95,
scooby_state_59cd89|4|1 95,0,0,0,0,0,0,0,0,0,0,0,0,0,0,95,
scooby_state_59cd8d|39|0 82,5,1,0,0,0,0,1,0,0,0,0,2,1,3,95,
scooby_state_59cdcf|45|1 10,5,1,0,0,0,1,0,1,0,0,0,75,1,1,95,
scooby_state_4968a0|56|0 94,0,0,0,0,0,0,0,0,0,0,0,0,0,0,94,
scooby_state_59cdbf|25|0 94,0,0,0,0,0,0,0,0,0,0,0,0,0,0,94,
scooby_state_59cd89|6|1 94,0,0,0,0,0,0,0,0,0,0,0,0,0,0,94,
scooby_state_59cdb0|17|1 70,0,0,0,1,0,0,1,0,0,0,0,1,1,20,94,
scooby_state_4bc35d|5|-1 78,8,2,3,2,1,0,0,0,0,0,0,0,0,0,94,
scooby_state_59cd8d|48|0 90,1,1,0,0,1,0,0,0,1,0,0,0,0,0,94,
scooby_state_59cdb0|25|1 65,2,1,1,0,0,2,0,0,1,0,0,0,0,22,94,
scooby_state_59cd8d|3|-5 91,0,1,0,0,2,0,0,0,0,0,0,0,0,0,94,
scooby_state_59cd89|7|1 92,0,0,0,0,0,0,0,0,0,1,0,0,0,0,93,
scooby_state_59d4e0|23|1 62,14,2,1,1,0,0,2,1,1,0,0,1,1,7,93,
scooby_state_59cd89|8|1 93,0,0,0,0,0,0,0,0,0,0,0,0,0,0,93,
scooby_state_49692f|2|0 71,0,0,22,0,0,0,0,0,0,0,0,0,0,0,93,
scooby_state_59d4e0|56|1 58,5,4,2,1,0,1,2,2,2,0,1,5,4,6,93,
scooby_state_59cd8d|47|0 75,11,0,0,1,1,0,1,0,0,1,1,0,0,2,93,
scooby_state_59cd8d|1|0 84,5,0,0,1,1,0,0,1,0,1,0,0,0,0,93,
scooby_state_59cdb0|15|1 81,0,0,1,0,0,0,0,0,0,0,0,0,0,11,93,
scooby_state_4c3c02|48|1 33,53,0,0,0,6,0,0,0,0,0,0,0,0,0,92,
scooby_state_59cd8d|58|0 81,5,0,0,0,0,0,0,0,0,0,2,1,1,2,92,
scooby_state_59cdbf|18|0 91,0,1,0,0,0,0,0,0,0,0,0,0,0,0,92,
scooby_state_59cdf2|54|2 3,48,0,0,0,0,0,0,0,0,0,41,0,0,0,92,
scooby_state_59cd8d|18|-5 91,0,0,0,0,1,0,0,0,0,0,0,0,0,0,92,
scooby_state_59cdcf|55|-1 0,0,0,0,0,1,0,0,0,0,0,0,90,1,0,92,
scooby_state_59cdee|51|1 11,0,0,1,1,0,0,0,0,2,0,1,0,0,76,92,
scooby_state_59cdf2|37|2 6,57,0,0,1,0,1,0,0,0,0,27,0,0,0,92,
scooby_state_59cdf2|18|2 5,76,0,0,0,0,0,0,0,0,0,11,0,0,0,92,
scooby_state_59cd8d|53|0 79,7,0,0,0,0,0,0,1,0,1,1,0,1,2,92,
scooby_state_59cd8d|57|0 82,5,1,0,0,0,0,0,0,0,0,1,2,0,0,91,
scooby_state_59cd89|16|1 91,0,0,0,0,0,0,0,0,0,0,0,0,0,0,91,
scooby_state_59cdf2|24|2 8,56,0,1,0,0,0,2,0,0,0,23,0,0,1,91,
scooby_state_59cd89|17|1 91,0,0,0,0,0,0,0,0,0,0,0,0,0,0,91,
scooby_state_59cdcf|24|-1 0,1,0,0,0,0,0,0,0,0,0,0,90,0,0,91,
scooby_state_59cd8d|31|-5 89,0,0,0,0,2,0,0,0,0,0,0,0,0,0,91,
scooby_state_59cd89|15|1 91,0,0,0,0,0,0,0,0,0,0,0,0,0,0,91,
scooby_state_59cd89|10|1 91,0,0,0,0,0,0,0,0,0,0,0,0,0,0,91,
scooby_state_59cd89|11|1 91,0,0,0,0,0,0,0,0,0,0,0,0,0,0,91,
scooby_state_59cd89|12|1 90,0,0,0,0,0,0,0,1,0,0,0,0,0,0,91,
scooby_state_59d4e0|17|1 63,10,1,1,1,0,0,1,2,1,1,0,0,0,10,91,
scooby_state_5bf96b|0|0 90,0,0,0,1,0,0,0,0,0,0,0,0,0,0,91,
scooby_state_59cd89|13|1 91,0,0,0,0,0,0,0,0,0,0,0,0,0,0,91,
scooby_state_59cd89|14|1 91,0,0,0,0,0,0,0,0,0,0,0,0,0,0,91,
scooby_state_59cd89|9|1 91,0,0,0,0,0,0,0,0,0,0,0,0,0,0,91,
scooby_state_59cd8d|41|0 83,3,0,0,0,0,0,2,0,1,1,0,0,0,0,90,
scooby_state_5ffeef|6|1 8,7,12,4,2,1,10,2,3,3,3,8,14,5,8,90,
scooby_state_59cd8d|38|0 66,15,0,0,0,0,0,0,1,0,0,2,0,2,4,90,
scooby_state_59cd9b|26|-2 0,90,0,0,0,0,0,0,0,0,0,0,0,0,0,90,
scooby_state_59cdf2|31|2 6,25,0,2,2,0,0,0,1,2,0,48,3,1,0,90,
scooby_state_59d4d1|57|0 66,1,0,4,2,1,0,3,1,1,0,2,1,1,7,90,
scooby_state_59cdf2|43|2 5,28,1,1,0,0,1,1,1,1,0,48,2,1,0,90,
scooby_state_59cdb0|1|1 59,0,0,2,2,0,1,1,1,0,0,1,1,0,22,90,
scooby_state_59cd89|18|1 90,0,0,0,0,0,0,0,0,0,0,0,0,0,0,90,
scooby_state_59d4e0|53|1 60,9,0,0,1,0,2,3,0,2,2,0,2,0,9,90,
scooby_state_59cdcf|31|-1 0,0,0,0,0,0,1,0,0,0,0,0,89,0,0,90,
scooby_state_59cdf2|55|2 4,39,0,0,0,0,0,0,0,0,1,43,2,0,1,90,
scooby_state_59cdf2|30|2 4,55,1,0,0,0,0,1,0,1,0,27,0,0,1,90,
scooby_state_59cd8d|16|-5 88,0,0,0,0,1,0,0,0,0,0,0,0,0,0,89,
scooby_state_59d4d1|41|0 72,3,1,0,0,2,2,1,0,0,2,0,3,0,3,89,
scooby_state_59cdee|46|1 1,0,1,0,1,0,0,2,2,0,0,4,1,0,77,89,
scooby_state_59d4d1|18|0 70,2,0,3,0,0,0,0,1,1,0,3,0,0,9,89,
scooby_state_59d4e0|26|1 68,8,1,0,0,0,2,0,1,2,2,3,0,0,2,89,
scooby_state_59cd89|19|1 89,0,0,0,0,0,0,0,0,0,0,0,0,0,0,89,
scooby_state_59cd8d|34|-5 87,0,0,0,0,1,0,0,0,0,0,0,0,0,0,88,
scooby_state_59cd8d|46|0 80,2,0,0,0,0,0,3,0,0,0,2,0,0,1,88,
scooby_state_59cd89|20|1 88,0,0,0,0,0,0,0,0,0,0,0,0,0,0,88,
scooby_state_59cd89|21|1 88,0,0,0,0,0,0,0,0,0,0,0,0,0,0,88,
scooby_state_64d6d7|15|0 86,0,0,0,0,0,0,0,0,0,1,0,0,0,1,88,
scooby_state_59d4e0|1|1 50,13,1,1,1,1,0,0,2,0,2,1,1,3,12,88,
scooby_state_59d4d1|43|1 37,32,1,3,4,0,1,1,1,3,1,0,1,1,2,88,
scooby_state_59d4d1|50|0 65,2,2,3,1,2,4,1,0,3,0,2,2,0,1,88,
scooby_state_59cd8d|11|0 82,5,0,0,0,0,0,1,0,0,0,0,0,0,0,88,
scooby_state_59cdbf|45|0 87,0,0,1,0,0,0,0,0,0,0,0,0,0,0,88,
scooby_state_59cdcf|10|-1 0,0,0,1,0,0,0,0,0,0,0,0,85,2,0,88,
scooby_state_59cdb0|51|1 68,2,1,3,0,0,1,1,0,0,0,0,0,0,11,87,
scooby_state_59d4d1|21|1 35,34,5,1,2,0,0,1,1,0,2,1,1,3,1,87,
scooby_state_59cdb0|10|1 62,0,1,2,1,0,0,0,0,0,0,0,1,3,17,87,
scooby_state_59cd8d|7|0 80,1,1,0,0,1,0,0,2,0,0,0,0,1,1,87,
scooby_state_59cdcf|3|-1 0,0,2,0,1,1,0,0,0,0,0,0,82,1,0,87,
scooby_state_59d4d1|54|-1 55,8,2,9,1,1,2,2,1,1,0,2,0,1,2,87,
scooby_state_59cdcf|32|-1 0,0,0,0,0,0,0,0,0,0,0,1,85,0,1,87,
scooby_state_59cdcf|28|-1 2,0,0,0,0,0,0,0,0,0,0,0,85,0,0,87,
scooby_state_59cdee|12|1 2,0,1,1,0,0,1,0,0,0,0,1,0,2,79,87,
scooby_state_59cd8d|25|0 78,6,0,0,0,0,0,0,0,0,0,0,0,1,2,87,
scooby_state_59cd8d|19|-6 87,0,0,0,0,0,0,0,0,0,0,0,0,0,0,87,
scooby_state_4c1a42|41|1 86,0,0,0,0,0,0,0,0,0,0,0,0,0,0,86,
scooby_state_59cdcf|26|-1 0,0,0,0,0,0,2,1,0,0,0,0,83,0,0,86,
scooby_state_59cdcf|46|1 11,4,1,0,1,0,0,0,0,0,0,1,68,0,0,86,
scooby_state_59cd89|23|1 86,0,0,0,0,0,0,0,0,0,0,0,0,0,0,86,
scooby_state_59cdcf|50|-1 0,0,0,0,1,0,0,0,0,0,0,0,84,0,1,86,
scooby_state_5bfc02|48|1 72,0,12,2,0,0,0,0,0,0,0,0,0,0,0,86,
scooby_state_59cdb0|20|1 63,1,1,0,1,0,0,0,0,1,2,1,0,1,15,86,
scooby_state_59cd89|22|1 86,0,0,0,0,0,0,0,0,0,0,0,0,0,0,86,
scooby_state_59d4d1|24|-1 47,6,0,12,2,2,1,2,0,2,2,3,2,2,2,85,
scooby_state_59cd8d|30|0 72,6,1,0,0,0,1,1,0,0,0,0,2,1,1,85,
scooby_state_59cdbf|33|0 85,0,0,0,0,0,0,0,0,0,0,0,0,0,0,85,
scooby_state_4c1b17|44|3 46,0,25,0,5,0,0,0,0,1,0,0,0,1,7,85,
scooby_state_59d4d1|39|0 62,2,0,2,1,1,1,1,1,2,1,2,3,0,6,85,
scooby_state_59cdf2|23|2 2,51,0,1,0,0,0,0,0,0,0,29,0,0,2,85,
scooby_state_59cd9b|37|-2 0,85,0,0,0,0,0,0,0,0,0,0,0,0,0,85,
scooby_state_59d4e0|58|1 51,15,0,4,0,2,0,1,0,0,0,1,4,4,3,85,
scooby_state_59cd8d|11|-5 83,0,0,0,0,2,0,0,0,0,0,0,0,0,0,85,
scooby_state_59cd89|25|1 85,0,0,0,0,0,0,0,0,0,0,0,0,0,0,85,
scooby_state_59cdcf|42|-1 1,0,1,2,0,0,0,0,1,0,0,0,80,0,0,85,
scooby_state_59cd89|24|1 85,0,0,0,0,0,0,0,0,0,0,0,0,0,0,85,
scooby_state_59cdcf|12|-1 0,0,1,0,0,0,0,0,0,0,1,0,83,0,0,85,
scooby_state_4c1c2b|48|4 85,0,0,0,0,0,0,0,0,0,0,0,0,0,0,85,
scooby_state_59cd8d|6|0 81,0,0,0,1,0,0,1,0,0,0,1,0,0,0,84,
scooby_state_59cdb0|22|1 60,0,0,0,2,0,0,0,0,0,0,2,1,0,19,84,
scooby_state_59cdcf|20|-1 0,0,0,0,0,0,0,0,0,0,0,0,84,0,0,84,
scooby_state_59cd8d|22|0 65,12,0,0,0,0,0,2,1,0,0,2,0,0,2,84,
scooby_state_59d4e0|29|1 64,9,1,0,1,0,0,0,1,1,2,0,1,1,3,84,
scooby_state_59cdf2|60|2 5,45,0,1,0,1,0,0,0,2,1,28,0,0,1,84,
scooby_state_59d4d1|16|0 67,1,2,2,0,3,1,0,0,2,1,2,1,0,2,84,
scooby_state_59cdbf|57|0 84,0,0,0,0,0,0,0,0,0,0,0,0,0,0,84,
scooby_state_59d4e0|11|1 52,8,0,2,1,0,0,0,1,2,1,5,3,1,7,83,
scooby_state_59cdbf|6|0 83,0,0,0,0,0,0,0,0,0,0,0,0,0,0,83,
scooby_state_5ffee7|5|0 83,0,0,0,0,0,0,0,0,0,0,0,0,0,0,83,
scooby_state_59cdcf|21|-1 0,0,0,1,0,1,0,0,0,0,0,0,81,0,0,83,
scooby_state_59cdf2|44|2 1,53,3,0,0,0,0,2,0,0,0,23,1,0,0,83,
scooby_state_59cd9b|3|3 0,81,0,0,1,0,0,1,0,0,0,0,0,0,0,83,
scooby_state_7b3b03|44|1 38,45,0,0,0,0,0,0,0,0,0,0,0,0,0,83,
scooby_state_59cdb0|13|1 59,0,2,1,0,1,1,0,1,1,1,0,0,0,16,83,
scooby_state_59cde2|29|0 80,0,0,0,1,1,0,0,0,1,0,0,0,0,0,83,
scooby_state_59cd8d|5|-5 82,0,0,0,0,0,0,1,0,0,0,0,0,0,0,83,
scooby_state_4cd681|2|0 62,0,0,0,3,0,1,1,4,2,2,2,0,3,3,83,
scooby_state_59cdbf|17|0 82,0,0,0,0,0,0,0,0,0,0,0,0,0,0,82,
scooby_state_59cde2|30|0 77,1,2,0,0,0,1,0,0,0,0,1,0,0,0,82,
scooby_state_59cd8d|23|0 74,6,0,0,0,0,0,0,0,0,0,1,0,1,0,82,
scooby_state_59cdb0|23|1 58,0,1,0,0,0,1,0,0,0,0,0,1,1,20,82,
scooby_state_59cd89|26|1 82,0,0,0,0,0,0,0,0,0,0,0,0,0,0,82,
scooby_state_59cdcf|40|-1 1,0,1,1,0,0,0,0,0,0,0,0,79,0,0,82,
scooby_state_59cd8d|7|-5 82,0,0,0,0,0,0,0,0,0,0,0,0,0,0,82,
scooby_state_59cdcf|49|-1 0,0,0,1,0,0,0,1,0,0,0,0,79,0,0,81,
scooby_state_4c1700|28|1 0,1,0,80,0,0,0,0,0,0,0,0,0,0,0,81,
scooby_state_4968b5|57|1 69,12,0,0,0,0,0,0,0,0,0,0,0,0,0,81,
scooby_state_59d4d1|56|1 44,29,0,1,1,0,0,1,1,0,0,1,0,0,3,81,
scooby_state_4cd681|26|1 81,0,0,0,0,0,0,0,0,0,0,0,0,0,0,81,
scooby_state_52a850|33|0 11,3,0,59,2,0,0,0,1,0,1,1,0,1,2,81,
scooby_state_59cdbf|49|0 81,0,0,0,0,0,0,0,0,0,0,0,0,0,0,81,
scooby_state_4d0a8f|42|1 74,7,0,0,0,0,0,0,0,0,0,0,0,0,0,81,
scooby_state_4c6744|29|1 4,63,0,2,1,0,3,1,1,0,0,4,1,1,0,81,
scooby_state_4c1751|29|1 39,38,3,0,1,0,0,0,0,0,0,0,0,0,0,81,
scooby_state_688a74|41|1 81,0,0,0,0,0,0,0,0,0,0,0,0,0,0,81,
scooby_state_59cdb0|47|1 55,1,1,1,2,0,1,1,1,0,0,1,0,0,17,81,
scooby_state_59cdb0|14|1 47,0,0,0,2,1,1,1,2,1,1,3,0,1,21,81,
scooby_state_59d4e0|28|1 51,6,1,2,2,1,1,2,2,0,2,1,2,2,6,81,
scooby_state_59cdcf|26|1 9,7,1,0,0,2,0,0,1,0,0,0,60,1,0,81,
scooby_state_67b70b|28|2 81,0,0,0,0,0,0,0,0,0,0,0,0,0,0,81,
scooby_state_4c1242|9|1 81,0,0,0,0,0,0,0,0,0,0,0,0,0,0,81,
scooby_state_4d0a50|41|0 46,32,0,0,0,0,3,0,0,0,0,0,0,0,0,81,
scooby_state_59cd8d|34|0 71,5,0,1,0,0,0,0,0,0,1,2,0,1,0,81,
scooby_state_4c4241|9|1 67,0,0,10,1,0,1,0,0,0,0,1,1,0,0,81,
scooby_state_67b6ac|26|1 76,0,0,5,0,0,0,0,0,0,0,0,0,0,0,81,
scooby_state_52a95f|37|4 75,1,2,0,1,1,0,0,0,0,0,1,0,0,0,81,
scooby_state_4c16da|27|2 0,81,0,0,0,0,0,0,0,0,0,0,0,0,0,81,
scooby_state_64d8ea|14|-1 81,0,0,0,0,0,0,0,0,0,0,0,0,0,0,81,
scooby_state_4d0ac2|43|1 22,0,21,0,1,25,1,0,0,1,0,8,0,1,1,81,
scooby_state_59cd9b|57|8 0,81,0,0,0,0,0,0,0,0,0,0,0,0,0,81,
scooby_state_59cdf2|39|2 4,36,0,0,0,0,0,0,0,0,0,41,0,0,0,81,
scooby_state_513b01|44|1 64,5,0,0,0,11,0,0,0,0,0,0,0,0,0,80,
scooby_state_59cd89|27|1 80,0,0,0,0,0,0,0,0,0,0,0,0,0,0,80,
scooby_state_59f640|25|0 1,79,0,0,0,0,0,0,0,0,0,0,0,0,0,80,
scooby_state_59cdf2|48|2 6,60,0,1,0,0,0,0,0,0,0,12,0,1,0,80,
scooby_state_59cd8d|9|0 71,4,0,0,1,0,1,0,0,0,0,0,1,0,2,80,
scooby_state_59d4d1|54|1 39,17,2,2,3,0,1,3,0,2,1,1,2,2,5,80,
scooby_state_59cd89|28|1 80,0,0,0,0,0,0,0,0,0,0,0,0,0,0,80,
scooby_state_59cd89|29|1 80,0,0,0,0,0,0,0,0,0,0,0,0,0,0,80,
scooby_state_59cd89|30|1 80,0,0,0,0,0,0,0,0,0,0,0,0,0,0,80,
scooby_state_59cdb0|29|1 51,0,0,3,0,2,1,1,2,1,1,1,0,1,16,80,
scooby_state_59d4e0|48|1 51,8,1,3,0,2,2,1,1,0,0,0,1,2,8,80,
scooby_state_59cdb0|52|1 49,0,2,1,1,0,0,0,0,2,1,1,1,0,22,80,
scooby_state_59cdf2|29|2 3,49,1,0,0,0,0,0,0,0,0,25,1,0,1,80,
scooby_state_59d4d1|61|1 34,25,0,1,2,0,2,1,0,2,2,1,1,3,5,79,
scooby_state_59cdb0|61|1 58,0,0,0,0,1,1,0,1,0,1,0,0,3,14,79,
scooby_state_59cdcf|62|-1 0,0,0,0,0,0,0,0,1,0,0,0,78,0,0,79,
scooby_state_59cdcf|46|-1 0,0,0,0,0,0,0,0,0,0,0,0,78,0,1,79,
scooby_state_59cdcf|22|-1 0,0,1,0,0,0,0,0,0,0,0,1,77,0,0,79,
scooby_state_59cdb0|57|1 57,0,3,0,0,0,0,1,0,1,1,0,0,0,16,79,
scooby_state_59cdbf|48|0 79,0,0,0,0,0,0,0,0,0,0,0,0,0,0,79,
scooby_state_67bc00|48|1 79,0,0,0,0,0,0,0,0,0,0,0,0,0,0,79,
scooby_state_59cd89|31|1 78,0,0,0,0,0,0,0,0,0,1,0,0,0,0,79,
scooby_state_59d4d1|34|0 60,1,2,1,0,2,1,1,0,1,0,2,0,2,6,79,
scooby_state_51370e|28|1 79,0,0,0,0,0,0,0,0,0,0,0,0,0,0,79,
scooby_state_59cdcf|47|-1 0,0,0,0,0,0,0,0,0,0,0,0,79,0,0,79,
scooby_state_513721|5|0 28,2,1,1,2,0,1,1,2,3,2,33,0,2,0,78,
scooby_state_59cdcf|6|-1 0,0,0,0,0,0,0,0,0,0,0,0,78,0,0,78,
scooby_state_59cdb0|3|1 58,2,0,1,0,0,1,0,0,0,0,0,0,1,15,78,
scooby_state_59cd8d|32|-5 76,0,0,0,1,1,0,0,0,0,0,0,0,0,0,78,
scooby_state_59cdee|32|1 5,1,0,1,0,1,0,0,0,0,0,0,3,0,67,78,
scooby_state_5ffbe0|47|0 78,0,0,0,0,0,0,0,0,0,0,0,0,0,0,78,
scooby_state_59d4d1|49|0 65,0,0,0,1,0,1,1,1,2,0,0,3,1,3,78,
scooby_state_59cdb0|53|1 61,0,1,0,0,2,0,1,0,1,0,0,0,1,11,78,
scooby_state_59cdcb|23|1 78,0,0,0,0,0,0,0,0,0,0,0,0,0,0,78,
scooby_state_59cdf2|1|0 7,47,4,1,0,4,0,0,6,1,0,5,0,1,2,78,
scooby_state_59cdf2|21|2 3,40,0,0,0,1,1,0,0,0,0,30,1,0,2,78,
scooby_state_59cd8d|17|-5 77,0,0,0,1,0,0,0,0,0,0,0,0,0,0,78,
scooby_state_59d4e0|27|1 43,15,6,0,0,1,1,1,0,2,2,1,1,1,4,78,
scooby_state_59cdbf|24|0 78,0,0,0,0,0,0,0,0,0,0,0,0,0,0,78,
scooby_state_4c1344|13|1 15,63,0,0,0,0,0,0,0,0,0,0,0,0,0,78,
scooby_state_59cdee|28|1 8,0,2,0,1,0,0,1,1,0,0,0,1,1,63,78,
scooby_state_59cd8d|43|0 70,2,0,0,0,2,0,0,0,0,0,1,1,0,2,78,
scooby_state_59cdcf|58|-1 0,0,0,0,0,0,0,0,0,1,0,0,76,0,0,77,
scooby_state_4c1a2e|40|3 58,0,0,0,0,3,0,1,0,0,0,0,0,0,15,77,
scooby_state_59cdb0|37|1 54,0,1,1,0,3,1,0,0,0,0,0,0,0,17,77,
scooby_state_59cd89|44|1 77,0,0,0,0,0,0,0,0,0,0,0,0,0,0,77,
scooby_state_59d4d1|20|0 51,0,0,5,2,1,2,1,1,1,3,4,1,1,4,77,
scooby_state_59cd89|40|1 77,0,0,0,0,0,0,0,0,0,0,0,0,0,0,77,
scooby_state_59d4d1|22|0 61,0,1,3,1,2,1,2,1,1,2,0,1,0,1,77,
scooby_state_59cd89|45|1 77,0,0,0,0,0,0,0,0,0,0,0,0,0,0,77,
scooby_state_59cd89|42|1 77,0,0,0,0,0,0,0,0,0,0,0,0,0,0,77,
scooby_state_59cd89|41|1 77,0,0,0,0,0,0,0,0,0,0,0,0,0,0,77,
scooby_state_4c5302|12|0 1,0,76,0,0,0,0,0,0,0,0,0,0,0,0,77,
scooby_state_59cdb0|18|1 58,0,0,1,0,0,0,0,0,0,1,0,0,1,16,77,
scooby_state_59cd89|39|1 77,0,0,0,0,0,0,0,0,0,0,0,0,0,0,77,
scooby_state_59cd89|43|1 77,0,0,0,0,0,0,0,0,0,0,0,0,0,0,77,
scooby_state_52769c|26|1 9,68,0,0,0,0,0,0,0,0,0,0,0,0,0,77,
scooby_state_5bf6da|27|1 61,0,0,0,0,16,0,0,0,0,0,0,0,0,0,77,
scooby_state_527774|29|1 67,0,0,0,0,10,0,0,0,0,0,0,0,0,0,77,
scooby_state_5276c1|27|1 77,0,0,0,0,0,0,0,0,0,0,0,0,0,0,77,
scooby_state_527708|28|1 57,0,0,0,0,7,0,0,0,0,0,0,13,0,0,77,
scooby_state_59cde2|56|1 70,1,1,0,0,0,0,2,1,0,0,0,0,0,2,77,
scooby_state_59cde2|42|0 72,0,1,1,0,0,0,0,0,0,0,0,3,0,0,77,
scooby_state_59cdf2|22|2 7,39,0,1,0,0,1,0,0,0,0,29,0,0,0,77,
scooby_state_59cdb0|40|1 56,0,1,2,1,0,0,0,0,1,0,0,0,1,15,77,
scooby_state_59eb3b|6|0 62,1,2,1,1,0,0,1,0,2,2,2,1,1,1,77,
scooby_state_4c1969|37|4 5,72,0,0,0,0,0,0,0,0,0,0,0,0,0,77,
scooby_state_531670|25|-1 77,0,0,0,0,0,0,0,0,0,0,0,0,0,0,77,
scooby_state_59cd89|55|1 76,0,0,0,0,0,0,0,0,0,0,0,0,0,0,76,
scooby_state_59d4d1|9|0 53,1,2,1,2,3,1,2,3,0,0,3,1,0,4,76,
scooby_state_59cd8d|0|-5 76,0,0,0,0,0,0,0,0,0,0,0,0,0,0,76,
scooby_state_59cd89|46|1 76,0,0,0,0,0,0,0,0,0,0,0,0,0,0,76,
scooby_state_59cdcf|45|-1 0,0,1,0,0,0,0,0,0,0,0,0,75,0,0,76,
scooby_state_5d7640|25|0 76,0,0,0,0,0,0,0,0,0,0,0,0,0,0,76,
scooby_state_59cdf2|32|2 0,50,0,1,0,0,1,0,0,1,0,21,1,1,0,76,
scooby_state_59cd8d|31|0 62,7,0,0,1,1,0,1,0,0,0,3,0,1,0,76,
scooby_state_59cd8d|22|-5 74,0,0,0,0,2,0,0,0,0,0,0,0,0,0,76,
scooby_state_59d4d1|30|0 62,1,0,0,1,1,1,1,0,1,0,1,0,0,7,76,
scooby_state_513241|9|1 42,23,0,0,0,0,0,0,0,0,0,0,0,0,11,76,
scooby_state_59cdb0|34|1 48,1,1,1,0,2,0,2,0,1,0,0,0,1,19,76,
scooby_state_59cd89|47|1 76,0,0,0,0,0,0,0,0,0,0,0,0,0,0,76,
scooby_state_59cd89|56|1 76,0,0,0,0,0,0,0,0,0,0,0,0,0,0,76,
scooby_state_59f742|29|1 52,0,0,0,0,4,3,1,0,1,0,3,12,0,0,76,
scooby_state_529770|29|0 18,54,0,0,0,0,0,0,0,0,0,0,4,0,0,76,
scooby_state_59ea41|41|1 76,0,0,0,0,0,0,0,0,0,0,0,0,0,0,76,
scooby_state_513740|29|1 14,56,0,0,0,0,2,0,0,0,0,0,0,2,2,76,
scooby_state_59cd89|49|1 76,0,0,0,0,0,0,0,0,0,0,0,0,0,0,76,
scooby_state_59cdb0|27|1 47,0,0,0,0,0,0,0,1,0,2,1,0,4,21,76,
scooby_state_59f73e|28|3 33,1,2,0,0,0,0,0,0,0,0,0,40,0,0,76,
scooby_state_59d4e0|57|1 57,3,0,1,4,2,2,1,0,1,0,0,1,1,3,76,
scooby_state_59cd8d|49|0 68,2,1,0,0,1,0,0,0,0,0,1,1,1,1,76,
scooby_state_59cd89|51|1 76,0,0,0,0,0,0,0,0,0,0,0,0,0,0,76,
scooby_state_59cd89|57|1 76,0,0,0,0,0,0,0,0,0,0,0,0,0,0,76,
scooby_state_59cd89|50|1 76,0,0,0,0,0,0,0,0,0,0,0,0,0,0,76,
scooby_state_59d4e0|51|1 42,11,1,2,1,2,2,0,1,2,2,0,1,3,6,76,
scooby_state_59eb05|44|3 75,0,0,0,0,0,0,1,0,0,0,0,0,0,0,76,
scooby_state_59d4d1|31|0 44,3,2,4,0,3,3,1,3,0,1,3,2,2,5,76,
scooby_state_59cdb0|11|1 57,0,1,3,0,0,0,1,1,0,0,0,0,0,13,76,
scooby_state_59cd89|54|1 75,0,0,0,0,0,0,1,0,0,0,0,0,0,0,76,
scooby_state_59cd89|48|1 76,0,0,0,0,0,0,0,0,0,0,0,0,0,0,76,
scooby_state_59cd89|32|1 76,0,0,0,0,0,0,0,0,0,0,0,0,0,0,76,
scooby_state_59cd89|52|1 75,0,0,0,0,0,0,0,0,0,0,0,0,0,0,75,
scooby_state_59d4d1|58|1 44,12,0,2,0,2,1,1,3,0,1,3,0,2,4,75,
scooby_state_59cdf2|4|2 4,37,0,1,1,0,0,0,0,0,0,30,1,0,1,75,
scooby_state_59cd8d|2|-3 39,30,0,0,0,0,0,0,1,0,1,0,0,1,3,75,
scooby_state_59cd8d|47|-5 74,0,0,0,0,1,0,0,0,0,0,0,0,0,0,75,
scooby_state_59cd89|53|1 75,0,0,0,0,0,0,0,0,0,0,0,0,0,0,75,
scooby_state_7b50b9|0|0 75,0,0,0,0,0,0,0,0,0,0,0,0,0,0,75,
scooby_state_6ec670|25|0 5,61,0,1,1,0,0,0,0,0,1,1,1,0,4,75,
scooby_state_59cd8d|40|0 60,13,0,1,1,0,0,0,0,0,0,0,0,0,0,75,
[...]
scooby_state_4c108c|15|2 0,0,0,0,0,0,0,0,0,0,0,0,1,0,0,1,
scooby_state_59cdb0|35|-5 1,0,0,0,0,0,0,0,0,0,0,0,0,0,0,1,
scooby_state_688a2a|4|0 0,0,0,0,0,1,0,0,0,0,0,0,0,0,0,1,
scooby_state_410e6b|0|-63 1,0,0,0,0,0,0,0,0,0,0,0,0,0,0,1,
scooby_state_7b2fc7|14|-18 0,1,0,0,0,0,0,0,0,0,0,0,0,0,0,1,
scooby_state_7c9501|20|1 1,0,0,0,0,0,0,0,0,0,0,0,0,0,0,1,
scooby_state_7c9643|25|1 1,0,0,0,0,0,0,0,0,0,0,0,0,0,0,1,
scooby_state_7c9680|26|1 0,0,1,0,0,0,0,0,0,0,0,0,0,0,0,1,
scooby_state_7c94f0|37|-1 1,0,0,0,0,0,0,0,0,0,0,0,0,0,0,1,
scooby_state_688060|1|-41 1,0,0,0,0,0,0,0,0,0,0,0,0,0,0,1,
scooby_state_7c9612|12|0 1,0,0,0,0,0,0,0,0,0,0,0,0,0,0,1,
scooby_state_7c9612|14|13 1,0,0,0,0,0,0,0,0,0,0,0,0,0,0,1,
scooby_state_7c9612|16|13 1,0,0,0,0,0,0,0,0,0,0,0,0,0,0,1,
scooby_state_7c965f|4|-13 1,0,0,0,0,0,0,0,0,0,0,0,0,0,0,1,
scooby_state_7b5749|5|-1 1,0,0,0,0,0,0,0,0,0,0,0,0,0,0,1,
scooby_state_7c9606|5|1 1,0,0,0,0,0,0,0,0,0,0,0,0,0,0,1,
scooby_state_7c9612|18|13 1,0,0,0,0,0,0,0,0,0,0,0,0,0,0,1,
scooby_state_7c965f|6|-13 1,0,0,0,0,0,0,0,0,0,0,0,0,0,0,1,
scooby_state_7c965f|8|-13 1,0,0,0,0,0,0,0,0,0,0,0,0,0,0,1,
scooby_state_7c9606|11|1 1,0,0,0,0,0,0,0,0,0,0,0,0,0,0,1,
scooby_state_5ffe7f|11|-1 1,0,0,0,0,0,0,0,0,0,0,0,0,0,0,1,
scooby_state_60026e|44|1 1,0,0,0,0,0,0,0,0,0,0,0,0,0,0,1,
scooby_state_7b35cf|32|-1 1,0,0,0,0,0,0,0,0,0,0,0,0,0,0,1,
scooby_state_67e337|20|0 0,1,0,0,0,0,0,0,0,0,0,0,0,0,0,1,
scooby_state_59d5c7|54|1 1,0,0,0,0,0,0,0,0,0,0,0,0,0,0,1,
scooby_state_4c5302|12|1 0,1,0,0,0,0,0,0,0,0,0,0,0,0,0,1,
scooby_state_59d4d1|6|-55 1,0,0,0,0,0,0,0,0,0,0,0,0,0,0,1,
scooby_state_4bc2b0|10|0 1,0,0,0,0,0,0,0,0,0,0,0,0,0,0,1,
scooby_state_64d6bf|16|5 1,0,0,0,0,0,0,0,0,0,0,0,0,0,0,1,
scooby_state_5bf57b|6|1 1,0,0,0,0,0,0,0,0,0,0,0,0,0,0,1,
scooby_state_67b4c7|11|5 1,0,0,0,0,0,0,0,0,0,0,0,0,0,0,1,
scooby_state_5ffeef|30|1 0,0,0,0,0,0,0,0,0,0,0,1,0,0,0,1,
scooby_state_64d6dc|47|1 1,0,0,0,0,0,0,0,0,0,0,0,0,0,0,1,
scooby_state_7b2fc7|34|11 1,0,0,0,0,0,0,0,0,0,0,0,0,0,0,1,
scooby_state_64da39|60|6 0,0,1,0,0,0,0,0,0,0,0,0,0,0,0,1,
scooby_state_59cdf2|62|32 0,1,0,0,0,0,0,0,0,0,0,0,0,0,0,1,
scooby_state_4f6c7e|38|22 1,0,0,0,0,0,0,0,0,0,0,0,0,0,0,1,
scooby_state_4d0bf8|11|5 1,0,0,0,0,0,0,0,0,0,0,0,0,0,0,1,
scooby_state_64d6d7|2|0 1,0,0,0,0,0,0,0,0,0,0,0,0,0,0,1,
scooby_state_59cdbf|29|22 1,0,0,0,0,0,0,0,0,0,0,0,0,0,0,1,
scooby_state_7c9440|17|-2 1,0,0,0,0,0,0,0,0,0,0,0,0,0,0,1,
scooby_state_5010bb|0|-39 1,0,0,0,0,0,0,0,0,0,0,0,0,0,0,1,
scooby_state_4c257f|27|0 1,0,0,0,0,0,0,0,0,0,0,0,0,0,0,1,
scooby_state_59cd8d|55|14 1,0,0,0,0,0,0,0,0,0,0,0,0,0,0,1,
scooby_state_59cdbf|51|22 1,0,0,0,0,0,0,0,0,0,0,0,0,0,0,1,
scooby_state_59cdcf|23|21 0,0,0,0,0,0,0,0,0,0,0,0,1,0,0,1,
scooby_state_53168e|38|23 1,0,0,0,0,0,0,0,0,0,0,0,0,0,0,1,
scooby_state_5ffef3|60|36 1,0,0,0,0,0,0,0,0,0,0,0,0,0,0,1,
scooby_state_4f6c7e|38|32 1,0,0,0,0,0,0,0,0,0,0,0,0,0,0,1,
scooby_state_406cd0|16|10 1,0,0,0,0,0,0,0,0,0,0,0,0,0,0,1,
scooby_state_7b3054|46|0 0,1,0,0,0,0,0,0,0,0,0,0,0,0,0,1,
scooby_state_4f6c95|11|-31 0,0,0,0,0,0,0,0,0,0,0,0,1,0,0,1,
scooby_state_59cd9b|39|31 0,1,0,0,0,0,0,0,0,0,0,0,0,0,0,1,
scooby_state_5ffeef|37|11 1,0,0,0,0,0,0,0,0,0,0,0,0,0,0,1,
scooby_state_7b34e8|56|23 1,0,0,0,0,0,0,0,0,0,0,0,0,0,0,1,
scooby_state_68864c|57|0 1,0,0,0,0,0,0,0,0,0,0,0,0,0,0,1,
scooby_state_7b3590|5|1 1,0,0,0,0,0,0,0,0,0,0,0,0,0,0,1,
scooby_state_59d4d1|48|3 0,0,0,0,0,0,0,0,0,1,0,0,0,0,0,1,
scooby_state_5010d5|59|0 1,0,0,0,0,0,0,0,0,0,0,0,0,0,0,1,
scooby_state_64d8e4|50|0 0,1,0,0,0,0,0,0,0,0,0,0,0,0,0,1,
scooby_state_5010bb|0|-48 1,0,0,0,0,0,0,0,0,0,0,0,0,0,0,1,
scooby_state_7b5749|44|21 1,0,0,0,0,0,0,0,0,0,0,0,0,0,0,1,
scooby_state_59cdcf|53|48 0,0,0,0,0,0,0,0,0,0,0,0,1,0,0,1,
scooby_state_67e944|37|1 1,0,0,0,0,0,0,0,0,0,0,0,0,0,0,1,
scooby_state_4bde1d|12|10 1,0,0,0,0,0,0,0,0,0,0,0,0,0,0,1,
scooby_state_7b3340|13|6 0,0,0,1,0,0,0,0,0,0,0,0,0,0,0,1,
scooby_state_59f224|32|30 1,0,0,0,0,0,0,0,0,0,0,0,0,0,0,1,
scooby_state_7b3483|18|10 1,0,0,0,0,0,0,0,0,0,0,0,0,0,0,1,
scooby_state_42918f|15|0 1,0,0,0,0,0,0,0,0,0,0,0,0,0,0,1,
scooby_state_600272|58|0 1,0,0,0,0,0,0,0,0,0,0,0,0,0,0,1,
scooby_state_7b5749|49|43 1,0,0,0,0,0,0,0,0,0,0,0,0,0,0,1,
scooby_state_7b5749|48|-2 1,0,0,0,0,0,0,0,0,0,0,0,0,0,0,1,
scooby_state_7b1aff|51|3 1,0,0,0,0,0,0,0,0,0,0,0,0,0,0,1,
scooby_state_59cdb0|39|-10 1,0,0,0,0,0,0,0,0,0,0,0,0,0,0,1,
scooby_state_59cdcf|43|31 1,0,0,0,0,0,0,0,0,0,0,0,0,0,0,1,
scooby_state_52fa01|40|1 1,0,0,0,0,0,0,0,0,0,0,0,0,0,0,1,
scooby_state_59cdbf|62|18 0,1,0,0,0,0,0,0,0,0,0,0,0,0,0,1,
scooby_state_7b1472|16|0 1,0,0,0,0,0,0,0,0,0,0,0,0,0,0,1,
scooby_state_5ffe83|44|-1 1,0,0,0,0,0,0,0,0,0,0,0,0,0,0,1,
scooby_state_59cd80|54|-3 1,0,0,0,0,0,0,0,0,0,0,0,0,0,0,1,
scooby_state_59d4d1|63|62 1,0,0,0,0,0,0,0,0,0,0,0,0,0,0,1,
scooby_state_4c1ecf|7|6 1,0,0,0,0,0,0,0,0,0,0,0,0,0,0,1,
scooby_state_59cd9b|57|49 0,1,0,0,0,0,0,0,0,0,0,0,0,0,0,1,
scooby_state_59cd8d|2|-29 1,0,0,0,0,0,0,0,0,0,0,0,0,0,0,1,
scooby_state_60025d|0|-1 1,0,0,0,0,0,0,0,0,0,0,0,0,0,0,1,
scooby_state_4f6c7e|38|-25 1,0,0,0,0,0,0,0,0,0,0,0,0,0,0,1,
scooby_state_688869|57|1 1,0,0,0,0,0,0,0,0,0,0,0,0,0,0,1,
scooby_state_600288|39|-1 1,0,0,0,0,0,0,0,0,0,0,0,0,0,0,1,
scooby_state_600272|3|1 0,1,0,0,0,0,0,0,0,0,0,0,0,0,0,1,
scooby_state_59cd8d|33|2 0,1,0,0,0,0,0,0,0,0,0,0,0,0,0,1,
scooby_state_4cd692|27|0 1,0,0,0,0,0,0,0,0,0,0,0,0,0,0,1,
scooby_state_59f22b|18|-1 1,0,0,0,0,0,0,0,0,0,0,0,0,0,0,1,
scooby_state_7b2fc7|46|-10 1,0,0,0,0,0,0,0,0,0,0,0,0,0,0,1,
scooby_state_4f6c70|49|10 1,0,0,0,0,0,0,0,0,0,0,0,0,0,0,1,
scooby_state_7b2fc7|39|-23 0,0,1,0,0,0,0,0,0,0,0,0,0,0,0,1,
scooby_state_5ffe83|49|-2 1,0,0,0,0,0,0,0,0,0,0,0,0,0,0,1,
scooby_state_4c0e74|35|1 0,0,0,0,0,0,1,0,0,0,0,0,0,0,0,1,
scooby_state_64da2a|52|0 1,0,0,0,0,0,0,0,0,0,0,0,0,0,0,1,
scooby_state_505b20|44|-2 1,0,0,0,0,0,0,0,0,0,0,0,0,0,0,1,
scooby_state_59cdbf|58|9 1,0,0,0,0,0,0,0,0,0,0,0,0,0,0,1,
scooby_state_4cd692|54|0 1,0,0,0,0,0,0,0,0,0,0,0,0,0,0,1,
scooby_state_7b2fc7|32|32 1,0,0,0,0,0,0,0,0,0,0,0,0,0,0,1,
scooby_state_59cd9b|30|-3 0,1,0,0,0,0,0,0,0,0,0,0,0,0,0,1,
scooby_state_59cd8d|42|-2 1,0,0,0,0,0,0,0,0,0,0,0,0,0,0,1,
scooby_state_600272|57|12 1,0,0,0,0,0,0,0,0,0,0,0,0,0,0,1,
scooby_state_59cd9b|37|30 0,1,0,0,0,0,0,0,0,0,0,0,0,0,0,1,
scooby_state_7b30c2|3|-24 1,0,0,0,0,0,0,0,0,0,0,0,0,0,0,1,
scooby_state_64da40|13|1 0,1,0,0,0,0,0,0,0,0,0,0,0,0,0,1,
scooby_state_600272|30|11 1,0,0,0,0,0,0,0,0,0,0,0,0,0,0,1,
scooby_state_600288|54|14 0,1,0,0,0,0,0,0,0,0,0,0,0,0,0,1,
scooby_state_52f66c|15|-8 1,0,0,0,0,0,0,0,0,0,0,0,0,0,0,1,
scooby_state_5010d5|34|34 1,0,0,0,0,0,0,0,0,0,0,0,0,0,0,1,
scooby_state_5ffed4|52|36 0,0,0,0,0,0,0,0,0,0,0,1,0,0,0,1,
scooby_state_59f224|56|-4 1,0,0,0,0,0,0,0,0,0,0,0,0,0,0,1,
scooby_state_410e6b|9|-45 1,0,0,0,0,0,0,0,0,0,0,0,0,0,0,1,
scooby_state_4c081d|1|1 0,0,0,0,0,0,0,0,1,0,0,0,0,0,0,1,
scooby_state_7b2fc7|18|3 1,0,0,0,0,0,0,0,0,0,0,0,0,0,0,1,
scooby_state_59cde2|34|-20 1,0,0,0,0,0,0,0,0,0,0,0,0,0,0,1,
scooby_state_4c6d6e|19|-5 1,0,0,0,0,0,0,0,0,0,0,0,0,0,0,1,
scooby_state_7b3590|5|0 1,0,0,0,0,0,0,0,0,0,0,0,0,0,0,1,
scooby_state_59cdbf|26|5 1,0,0,0,0,0,0,0,0,0,0,0,0,0,0,1,
scooby_state_59f224|29|-34 1,0,0,0,0,0,0,0,0,0,0,0,0,0,0,1,
scooby_state_5bf57b|29|1 1,0,0,0,0,0,0,0,0,0,0,0,0,0,0,1,
scooby_state_688b8a|52|0 0,1,0,0,0,0,0,0,0,0,0,0,0,0,0,1,
scooby_state_7b3054|15|1 0,1,0,0,0,0,0,0,0,0,0,0,0,0,0,1,
scooby_state_59cd9b|55|21 0,1,0,0,0,0,0,0,0,0,0,0,0,0,0,1,
scooby_state_5bf57b|19|1 1,0,0,0,0,0,0,0,0,0,0,0,0,0,0,1,
scooby_state_5ffef3|55|-1 1,0,0,0,0,0,0,0,0,0,0,0,0,0,0,1,
scooby_state_64d911|40|0 1,0,0,0,0,0,0,0,0,0,0,0,0,0,0,1,
scooby_state_600265|44|12 1,0,0,0,0,0,0,0,0,0,0,0,0,0,0,1,
scooby_state_59cde2|59|17 1,0,0,0,0,0,0,0,0,0,0,0,0,0,0,1,
scooby_state_529d28|11|-6 1,0,0,0,0,0,0,0,0,0,0,0,0,0,0,1,
scooby_state_600265|1|0 1,0,0,0,0,0,0,0,0,0,0,0,0,0,0,1,
scooby_state_59cdb0|13|-3 1,0,0,0,0,0,0,0,0,0,0,0,0,0,0,1,
scooby_state_7b5749|18|-10 1,0,0,0,0,0,0,0,0,0,0,0,0,0,0,1,
scooby_state_59eb2f|37|1 1,0,0,0,0,0,0,0,0,0,0,0,0,0,0,1,
scooby_state_68864c|2|1 1,0,0,0,0,0,0,0,0,0,0,0,0,0,0,1,
scooby_state_6003ee|29|11 1,0,0,0,0,0,0,0,0,0,0,0,0,0,0,1,
scooby_state_461674|58|49 1,0,0,0,0,0,0,0,0,0,0,0,0,0,0,1,
scooby_state_4d07a9|17|-41 1,0,0,0,0,0,0,0,0,0,0,0,0,0,0,1,
scooby_state_7b1aff|27|1 1,0,0,0,0,0,0,0,0,0,0,0,0,0,0,1,
scooby_state_4c0760|29|17 1,0,0,0,0,0,0,0,0,0,0,0,0,0,0,1,
scooby_state_679700|28|1 1,0,0,0,0,0,0,0,0,0,0,0,0,0,0,1,
scooby_state_68dd82|54|30 0,0,0,0,0,1,0,0,0,0,0,0,0,0,0,1,
scooby_state_513041|1|-43 0,1,0,0,0,0,0,0,0,0,0,0,0,0,0,1,
scooby_state_68df74|40|39 0,0,0,0,0,1,0,0,0,0,0,0,0,0,0,1,
scooby_state_5bf580|22|-30 0,1,0,0,0,0,0,0,0,0,0,0,0,0,0,1,
scooby_state_496581|22|-15 1,0,0,0,0,0,0,0,0,0,0,0,0,0,0,1,
scooby_state_7b34e8|23|0 1,0,0,0,0,0,0,0,0,0,0,0,0,0,0,1,
scooby_state_7b358c|22|14 0,0,0,1,0,0,0,0,0,0,0,0,0,0,0,1,
scooby_state_7b3590|5|2 0,0,0,0,0,1,0,0,0,0,0,0,0,0,0,1,
scooby_state_7b372c|16|0 1,0,0,0,0,0,0,0,0,0,0,0,0,0,0,1,
scooby_state_64d6c3|27|0 1,0,0,0,0,0,0,0,0,0,0,0,0,0,0,1,
scooby_state_7b372c|17|0 1,0,0,0,0,0,0,0,0,0,0,0,0,0,0,1,
scooby_state_5fff8d|27|-3 1,0,0,0,0,0,0,0,0,0,0,0,0,0,0,1,
scooby_state_7b3741|22|2 1,0,0,0,0,0,0,0,0,0,0,0,0,0,0,1,
scooby_state_7b375b|16|-6 1,0,0,0,0,0,0,0,0,0,0,0,0,0,0,1,
scooby_state_687aab|11|-15 0,0,0,0,1,0,0,0,0,0,0,0,0,0,0,1,
scooby_state_5fff83|28|1 1,0,0,0,0,0,0,0,0,0,0,0,0,0,0,1,
scooby_state_5fff83|44|-16 1,0,0,0,0,0,0,0,0,0,0,0,0,0,0,1,
scooby_state_4be569|60|54 1,0,0,0,0,0,0,0,0,0,0,0,0,0,0,1,
scooby_state_5ffeef|8|-6 0,0,0,0,1,0,0,0,0,0,0,0,0,0,0,1,
scooby_state_51371e|9|0 0,0,0,0,0,1,0,0,0,0,0,0,0,0,0,1,
scooby_state_5fff83|56|16 1,0,0,0,0,0,0,0,0,0,0,0,0,0,0,1,
scooby_state_67e326|22|-34 0,0,0,0,0,0,0,0,0,0,1,0,0,0,0,1,
scooby_state_7b1476|7|-3 0,1,0,0,0,0,0,0,0,0,0,0,0,0,0,1,
scooby_state_67e330|13|-9 0,0,0,0,0,0,0,1,0,0,0,0,0,0,0,1,
scooby_state_687aab|11|-6 1,0,0,0,0,0,0,0,0,0,0,0,0,0,0,1,
scooby_state_688a2a|9|-47 1,0,0,0,0,0,0,0,0,0,0,0,0,0,0,1,
scooby_state_4cd692|1|0 1,0,0,0,0,0,0,0,0,0,0,0,0,0,0,1,
scooby_state_4cd770|29|1 1,0,0,0,0,0,0,0,0,0,0,0,0,0,0,1,
scooby_state_4ca040|1|0 0,1,0,0,0,0,0,0,0,0,0,0,0,0,0,1,
scooby_state_4ca2f0|34|-1 1,0,0,0,0,0,0,0,0,0,0,0,0,0,0,1,
scooby_state_4ca317|12|9 1,0,0,0,0,0,0,0,0,0,0,0,0,0,0,1,
scooby_state_507881|34|1 0,1,0,0,0,0,0,0,0,0,0,0,0,0,0,1,
scooby_state_7b34e8|30|0 0,0,0,0,0,1,0,0,0,0,0,0,0,0,0,1,
scooby_state_7b14d8|61|1 0,0,0,0,0,1,0,0,0,0,0,0,0,0,0,1,
scooby_state_5ffa8e|12|6 1,0,0,0,0,0,0,0,0,0,0,0,0,0,0,1,
scooby_state_688267|61|0 0,0,0,1,0,0,0,0,0,0,0,0,0,0,0,1,
scooby_state_7b14d8|47|2 1,0,0,0,0,0,0,0,0,0,0,0,0,0,0,1,
scooby_state_688b8a|60|-1 0,1,0,0,0,0,0,0,0,0,0,0,0,0,0,1,
scooby_state_600265|61|1 1,0,0,0,0,0,0,0,0,0,0,0,0,0,0,1,
scooby_state_600265|55|-6 1,0,0,0,0,0,0,0,0,0,0,0,0,0,0,1,
scooby_state_7b358c|22|0 0,0,0,1,0,0,0,0,0,0,0,0,0,0,0,1,
scooby_state_496340|13|-9 0,0,0,0,0,0,0,0,0,0,0,0,0,0,1,1,
scooby_state_68d827|32|2 1,0,0,0,0,0,0,0,0,0,0,0,0,0,0,1,
scooby_state_5fff8d|30|-2 1,0,0,0,0,0,0,0,0,0,0,0,0,0,0,1,
scooby_state_7b5749|38|0 0,1,0,0,0,0,0,0,0,0,0,0,0,0,0,1,
scooby_state_7b5749|36|-2 1,0,0,0,0,0,0,0,0,0,0,0,0,0,0,1,
scooby_state_5010bb|0|-16 1,0,0,0,0,0,0,0,0,0,0,0,0,0,0,1,
scooby_state_59cdbf|47|3 1,0,0,0,0,0,0,0,0,0,0,0,0,0,0,1,
scooby_state_688b8a|62|0 0,1,0,0,0,0,0,0,0,0,0,0,0,0,0,1,
scooby_state_5bf57b|17|17 1,0,0,0,0,0,0,0,0,0,0,0,0,0,0,1,
scooby_state_59d4d1|50|26 1,0,0,0,0,0,0,0,0,0,0,0,0,0,0,1,
scooby_state_52a1c2|7|2 0,0,0,0,0,1,0,0,0,0,0,0,0,0,0,1,
scooby_state_7b30d6|3|-20 1,0,0,0,0,0,0,0,0,0,0,0,0,0,0,1,
scooby_state_7b34e8|39|0 0,0,0,0,0,1,0,0,0,0,0,0,0,0,0,1,
scooby_state_5c85b0|3|1 1,0,0,0,0,0,0,0,0,0,0,0,0,0,0,1,
scooby_state_5299b4|22|21 1,0,0,0,0,0,0,0,0,0,0,0,0,0,0,1,
scooby_state_59cd8d|33|-9 1,0,0,0,0,0,0,0,0,0,0,0,0,0,0,1,
scooby_state_59f242|55|51 1,0,0,0,0,0,0,0,0,0,0,0,0,0,0,1,
scooby_state_7b2fc7|26|0 0,0,0,0,0,0,0,0,0,1,0,0,0,0,0,1,
scooby_state_5010bb|0|-3 1,0,0,0,0,0,0,0,0,0,0,0,0,0,0,1,
scooby_state_7b372c|28|11 0,1,0,0,0,0,0,0,0,0,0,0,0,0,0,1,
scooby_state_7b372c|6|0 1,0,0,0,0,0,0,0,0,0,0,0,0,0,0,1,
scooby_state_59eb38|5|1 1,0,0,0,0,0,0,0,0,0,0,0,0,0,0,1,
scooby_state_7b3203|8|0 1,0,0,0,0,0,0,0,0,0,0,0,0,0,0,1,
scooby_state_59cde2|36|-3 0,0,0,1,0,0,0,0,0,0,0,0,0,0,0,1,
scooby_state_5ffeeb|62|6 0,1,0,0,0,0,0,0,0,0,0,0,0,0,0,1,
scooby_state_67e201|8|0 0,0,1,0,0,0,0,0,0,0,0,0,0,0,0,1,
scooby_state_59cdb0|8|-8 1,0,0,0,0,0,0,0,0,0,0,0,0,0,0,1,
scooby_state_59f242|6|0 1,0,0,0,0,0,0,0,0,0,0,0,0,0,0,1,
scooby_state_5d0381|14|1 1,0,0,0,0,0,0,0,0,0,0,0,0,0,0,1,
scooby_state_59cd9b|26|12 0,1,0,0,0,0,0,0,0,0,0,0,0,0,0,1,
scooby_state_59f242|7|1 1,0,0,0,0,0,0,0,0,0,0,0,0,0,0,1,
scooby_state_7b1472|58|0 1,0,0,0,0,0,0,0,0,0,0,0,0,0,0,1,
scooby_state_59eb38|60|53 0,0,0,0,0,1,0,0,0,0,0,0,0,0,0,1,
scooby_state_5ffed4|52|0 1,0,0,0,0,0,0,0,0,0,0,0,0,0,0,1,

scooby_action_0_deg_dist 0,10906,0,0,0,0,0,0,0,0,0,0,0,0,0,0,
scooby_action_-6_deg_dist 0,1368,1,0,0,0,0,0,0,0,0,0,0,0,0,0,
scooby_action_4_deg_dist 0,4949,0,0,0,0,0,0,0,0,0,0,0,0,0,0,
scooby_action_1_deg_dist 0,158252,20298,0,12966,0,7180,0,0,0,0,0,0,0,0,0,
scooby_action_30_deg_dist 0,1005,0,0,0,0,0,0,0,0,0,0,0,0,0,0,
scooby_action_5_deg_dist 0,3525,40,0,53,0,179,0,0,0,0,0,0,0,0,0,
scooby_action_3_deg_dist 0,86496,6490,0,3832,0,508,0,0,0,0,0,0,0,0,0,
scooby_action_32_deg_dist 0,1077,1,0,0,0,0,0,0,0,0,0,0,0,0,0,
scooby_action_10_deg_dist 0,1354,2,0,0,0,0,0,0,0,0,0,0,0,0,0,
scooby_action_11_deg_dist 0,2309,42,0,74,0,267,0,0,0,0,0,0,0,0,0,
scooby_action_12_deg_dist 0,1381,0,0,0,0,0,0,0,0,0,0,0,0,0,0,
scooby_action_22_deg_dist 0,1146,1,0,0,0,0,0,0,0,0,0,0,0,0,0,
scooby_action_23_deg_dist 0,1229,0,0,0,0,0,0,0,0,0,0,0,0,0,0,
scooby_action_-1_deg_dist 0,3876,11,0,1,0,0,0,0,0,0,0,0,0,0,0,
scooby_action_-3_deg_dist 0,17638,6,0,15,0,44,0,0,0,0,0,0,0,0,0,

scooby_track_called 348522
scooby_track_same_address 49502
scooby_track_evict 298764

scooby_reward_demand_called 348522
scooby_reward_demand_pt_not_found 220949
scooby_reward_demand_pt_found 127573
scooby_reward_demand_pt_found_total 127573
scooby_reward_demand_has_reward 445
scooby_reward_train_called 161066
scooby_reward_assign_reward_called 298879
scooby_reward_no_pref 10903
scooby_reward_incorrect 150163
scooby_reward_correct_untimely 68167
scooby_reward_correct_timely 58961
scooby_reward_out_of_bounds 10685
scooby_reward_tracker_hit 0

scooby_reward_none_low_bw 10903
scooby_reward_none_high_bw 0
scooby_reward_incorrect_low_bw 150163
scooby_reward_incorrect_high_bw 0
scooby_reward_correct_untimely_low_bw 68167
scooby_reward_correct_untimely_high_bw 0
scooby_reward_correct_timely_low_bw 58961
scooby_reward_correct_timely_high_bw 0
scooby_reward_out_of_bounds_low_bw 10685
scooby_reward_out_of_bounds_high_bw 0
scooby_reward_tracker_hit_low_bw 0
scooby_reward_tracker_hit_high_bw 0

scooby_reward_1 0,86270,48333,26348,2843,0,
scooby_reward_3 0,40767,18006,26244,3997,0,
scooby_reward_4 0,2056,376,198,158,0,
scooby_reward_5 0,2362,480,315,266,0,
scooby_reward_10 0,1035,43,33,181,0,
scooby_reward_11 0,1632,259,240,418,0,
scooby_reward_12 0,1008,58,20,226,0,
scooby_reward_22 0,682,17,21,399,0,
scooby_reward_23 0,729,21,31,402,0,
scooby_reward_30 0,520,3,2,466,0,
scooby_reward_32 0,516,25,17,502,0,
scooby_reward_-1 0,1495,150,67,41,0,
scooby_reward_-3 0,10052,384,5409,647,0,
scooby_reward_-6 0,1039,12,16,139,0,
scooby_reward_0 10903,0,0,0,0,0,

scooby_train_called 298763
scooby_train_compute_reward 161066

scooby_register_fill_called 201000
scooby_register_fill_set 166782
scooby_register_fill_set_total 166782

scooby_register_prefetch_hit_called 116043
scooby_register_prefetch_hit_set 76556
scooby_register_prefetch_hit_set_total 76556

scooby_pref_issue_scooby 371635

learning_engine_featurewise.action.called 348522
learning_engine_featurewise.action.explore 646
learning_engine_featurewise.action.exploit 347876
learning_engine_featurewise.action.fallback 6668
learning_engine_featurewise.action.dyn_fallback_saved_bw 0
learning_engine_featurewise.action.dyn_fallback_saved_bw_acc 40522
learning_engine_featurewise.action.index_1_explored 36
learning_engine_featurewise.action.index_1_exploited 198660
learning_engine_featurewise.action.index_3_explored 45
learning_engine_featurewise.action.index_3_exploited 97281
learning_engine_featurewise.action.index_4_explored 35
learning_engine_featurewise.action.index_4_exploited 4914
learning_engine_featurewise.action.index_5_explored 44
learning_engine_featurewise.action.index_5_exploited 3753
learning_engine_featurewise.action.index_10_explored 56
learning_engine_featurewise.action.index_10_exploited 1300
learning_engine_featurewise.action.index_11_explored 40
learning_engine_featurewise.action.index_11_exploited 2652
learning_engine_featurewise.action.index_12_explored 48
learning_engine_featurewise.action.index_12_exploited 1333
learning_engine_featurewise.action.index_22_explored 49
learning_engine_featurewise.action.index_22_exploited 1098
learning_engine_featurewise.action.index_23_explored 39
learning_engine_featurewise.action.index_23_exploited 1190
learning_engine_featurewise.action.index_30_explored 50
learning_engine_featurewise.action.index_30_exploited 955
learning_engine_featurewise.action.index_32_explored 35
learning_engine_featurewise.action.index_32_exploited 1043
learning_engine_featurewise.action.index_-1_explored 49
learning_engine_featurewise.action.index_-1_exploited 3839
learning_engine_featurewise.action.index_-3_explored 39
learning_engine_featurewise.action.index_-3_exploited 17664
learning_engine_featurewise.action.index_-6_explored 36
learning_engine_featurewise.action.index_-6_exploited 1333
learning_engine_featurewise.action.index_0_explored 45
learning_engine_featurewise.action.index_0_exploited 10861
learning_engine_featurewise.learn.called 298763
learning_engine_featurewise.learn.su_skip_PC 0
learning_engine_featurewise.learn.su_skip_PC_Delta 0

learning_engine_featurewise.q_value_histogram.bucket_0 20
learning_engine_featurewise.q_value_histogram.bucket_1 2316
learning_engine_featurewise.q_value_histogram.bucket_2 20391
learning_engine_featurewise.q_value_histogram.bucket_3 42889
learning_engine_featurewise.q_value_histogram.bucket_4 105550
learning_engine_featurewise.q_value_histogram.bucket_5 53720
learning_engine_featurewise.q_value_histogram.bucket_6 122990
learning_engine_featurewise.q_value_histogram.bucket_7 0

learning_engine_featurewise.consensus.total 347876
learning_engine_featurewise.consensus.feature_align_PC 262672
learning_engine_featurewise.consensus.feature_align_PC_ratio 0.76
learning_engine_featurewise.consensus.feature_align_PC_Delta 284049
learning_engine_featurewise.consensus.feature_align_PC_Delta_ratio 0.82
learning_engine_featurewise.consensus.feature_align_all 200808
learning_engine_featurewise.consensus.feature_align_all_ratio 0.58

learning_engine_featurewise.feature_PC_min_weight 1000000.00000000
learning_engine_featurewise.feature_PC_max_weight 0.00000000
learning_engine_featurewise.feature_PC_Delta_min_weight 1000000.00000000
learning_engine_featurewise.feature_PC_Delta_max_weight 0.00000000
unique_pcs 1771
unique_pages 10693
unique_trigger_pcs 713
total_bitmaps_seen 0
unique_bitmaps_seen 0

scooby_bw_epochs 117154
scooby_bw_level_0 74791
scooby_bw_level_1 39548
scooby_bw_level_2 2705
scooby_bw_level_3 110

scooby_ipc_epochs 0
scooby_ipc_level_0 0
scooby_ipc_level_1 0
scooby_ipc_level_2 0
scooby_ipc_level_3 0

scooby_cache_acc_epochs 24935
scooby_cache_acc_level_0 2339
scooby_cache_acc_level_1 3140
scooby_cache_acc_level_2 5995
scooby_cache_acc_level_3 6011
scooby_cache_acc_level_4 3385
scooby_cache_acc_level_5 1913
scooby_cache_acc_level_6 992
scooby_cache_acc_level_7 539
scooby_cache_acc_level_8 259
scooby_cache_acc_level_9 362

Channel_0_RQ_row_buffer_hit 153797
Channel_0_RQ_row_buffer_miss 70921
Channel_0_WQ_row_buffer_hit 270
Channel_0_WQ_row_buffer_miss 1852
Channel_0_WQ_full 0
Channel_0_dbus_congested 91115

avg_congested_cycle 8

DRAM_bw_pochs 117154
DRAM_bw_level_0 74791
DRAM_bw_level_1 39548
DRAM_bw_level_2 2705
DRAM_bw_level_3 110
