Original cmd-> /cluster/home/vlnitu/CA-Lab4-24-vlnitu/Pythia/bin/perceptron-no-multi-no-ship-1core --warmup_instructions=1000000 --simulation_instructions=10000000 --config=/cluster/home/vlnitu/CA-Lab4-24-vlnitu/Pythia/config/nopref.ini --mail-type=BEGIN,END  -traces /cluster/home/vlnitu/CA-Lab4-24-vlnitu/Pythia/traces/627.cam4_s-573B.champsimtrace.xz
*************************************************
   ChampSim Multicore Out-of-Order Simulator
   Last compiled: Nov 19 2024 20:10:11
*************************************************
parsing config file: /cluster/home/vlnitu/CA-Lab4-24-vlnitu/Pythia/config/nopref.ini
unable to parse section: , name: mail-type, value: BEGIN,END

trace_0 /cluster/home/vlnitu/CA-Lab4-24-vlnitu/Pythia/traces/627.cam4_s-573B.champsimtrace.xz
adding L2C_PREFETCHER: NONE
Initialize SHIP state
warmup_instructions 1000000
simulation_instructions 10000000
champsim_seed 225
measure_ipc 0
measure_ipc_epoch 1000
measure_dram_bw 1
measure_dram_bw_epoch 256
measure_cache_acc 1
measure_cache_acc_epoch 1024
l1d_perfect 0
l2c_perfect 0
llc_perfect 0
l1d_semi_perfect 0
l2c_semi_perfect 0
llc_semi_perfect 0
semi_perfect_cache_page_buffer_size 64

num_cpus 1
cpu_freq 4000
dram_io_freq 2400
page_size 4096
block_size 64
max_read_per_cycle 8
max_fill_per_cycle 1
dram_channels 1
log2_dram_channels 0
dram_ranks 1
dram_banks 8
dram_rows 65536
dram_columns 128
dram_row_size 8
dram_size 4096
dram_pages 1048576

fetch_width 6
decode_width 6
exec_width 4
lq_width 2
sq_width 2
retire_width 4
scheduler_size 128
branch_mispredict_penalty 20
rob_size 256
lq_size 72
sq_size 56
num_instr_destinations_sparc 4
num_instr_destinations 2
num_instr_sources 4

itlb_set 16
itlb_way 8
itlb_rq_size 16
itlb_wq_size 16
itlb_pq_size 0
itlb_mshr_size 8
itlb_latency 1

dtlb_set 16
dtlb_way 4
dtlb_rq_size 16
dtlb_wq_size 16
dtlb_pq_size 0
dtlb_mshr_size 8
dtlb_latency 1

stlb_set 128
stlb_way 12
stlb_rq_size 32
stlb_wq_size 32
stlb_pq_size 0
stlb_mshr_size 16
stlb_latency 8

l1i_size 32
l1i_set 64
l1i_way 8
l1i_rq_size 64
l1i_wq_size 64
l1i_pq_size 8
l1i_mshr_size 8
l1i_latency 1

l1d_size 32
l1d_set 64
l1d_way 8
l1d_rq_size 64
l1d_wq_size 64
l1d_pq_size 8
l1d_mshr_size 16
l1d_latency 4

l2c_size 256
l2c_set 512
l2c_way 8
l2c_rq_size 32
l2c_wq_size 32
l2c_pq_size 32
l2c_mshr_size 32
l2c_latency 10

llc_size 2048
llc_set 2048
llc_way 16
llc_rq_size 32
llc_wq_size 32
llc_pq_size 32
llc_mshr_size 64
llc_latency 20

dram_channel_width 8
dram_wq_size 64
dram_rq_size 64
tRP 15
tRCD 15
tCAS 12.5
dram_dbus_turn_around_time 30
dram_write_high_wm 56
dram_write_low_wm 48
min_dram_writes_per_switch 16
dram_mtps 2400
dram_dbus_return_time 13


Heartbeat CPU  0 instructions:    1000003 cycles:     291872 heartbeat IPC: 3.42617 cumulative IPC: 3.42617 (Simulation time: 0 hr 0 min 1 sec) 

Warmup complete CPU  0 instructions:    1000003 cycles:     291872 (Simulation time: 0 hr 0 min 1 sec) 

Heartbeat CPU  0 instructions:    2000001 cycles:    3782463 heartbeat IPC: 0.28648 cumulative IPC: 0.28648 (Simulation time: 0 hr 0 min 4 sec) 
Heartbeat CPU  0 instructions:    3000002 cycles:    4982878 heartbeat IPC: 0.83305 cumulative IPC: 0.42635 (Simulation time: 0 hr 0 min 5 sec) 
Heartbeat CPU  0 instructions:    4000000 cycles:    5880707 heartbeat IPC: 1.11380 cumulative IPC: 0.53678 (Simulation time: 0 hr 0 min 6 sec) 
Heartbeat CPU  0 instructions:    5000002 cycles:    6609475 heartbeat IPC: 1.37218 cumulative IPC: 0.63315 (Simulation time: 0 hr 0 min 7 sec) 
Heartbeat CPU  0 instructions:    6000000 cycles:    7888535 heartbeat IPC: 0.78182 cumulative IPC: 0.65818 (Simulation time: 0 hr 0 min 9 sec) 
Heartbeat CPU  0 instructions:    7000002 cycles:    9135880 heartbeat IPC: 0.80170 cumulative IPC: 0.67843 (Simulation time: 0 hr 0 min 11 sec) 
Heartbeat CPU  0 instructions:    8000000 cycles:   10484134 heartbeat IPC: 0.74170 cumulative IPC: 0.68680 (Simulation time: 0 hr 0 min 12 sec) 
Heartbeat CPU  0 instructions:    9000003 cycles:   11822920 heartbeat IPC: 0.74695 cumulative IPC: 0.69378 (Simulation time: 0 hr 0 min 14 sec) 
Heartbeat CPU  0 instructions:   10000003 cycles:   13146821 heartbeat IPC: 0.75534 cumulative IPC: 0.70012 (Simulation time: 0 hr 0 min 15 sec) 
Heartbeat CPU  0 instructions:   11000002 cycles:   14202491 heartbeat IPC: 0.94726 cumulative IPC: 0.71888 (Simulation time: 0 hr 0 min 17 sec) 
Finished CPU 0 instructions: 10000001 cycles: 13910629 cumulative IPC: 0.71887 (Simulation time: 0 hr 0 min 17 sec) 

ChampSim completed all CPUs

[ROI Statistics]
Core_0_instructions 10000001
Core_0_cycles 13910629
Core_0_IPC 0.71887

Core_0_branch_prediction_accuracy 98.66650
Core_0_branch_MPKI 1.80310
Core_0_average_ROB_occupancy_at_mispredict 140.20598

Core_0_L1D_total_access 1723048
Core_0_L1D_total_hit 1617597
Core_0_L1D_total_miss 105451
Core_0_L1D_loads 1032870
Core_0_L1D_load_hit 1010077
Core_0_L1D_load_miss 22793
Core_0_L1D_RFOs 690178
Core_0_L1D_RFO_hit 607520
Core_0_L1D_RFO_miss 82658
Core_0_L1D_prefetches 0
Core_0_L1D_prefetch_hit 0
Core_0_L1D_prefetch_miss 0
Core_0_L1D_writebacks 0
Core_0_L1D_writeback_hit 0
Core_0_L1D_writeback_miss 0
Core_0_L1D_prefetch_requested 0
Core_0_L1D_prefetch_dropped 0
Core_0_L1D_prefetch_issued 0
Core_0_L1D_prefetch_filled 0
Core_0_L1D_prefetch_useful 0
Core_0_L1D_prefetch_useless 0
Core_0_L1D_prefetch_late 0
Core_0_L1D_average_miss_latency 601.63965

Core_0_L1D_rq_access 1445524
Core_0_L1D_rq_forward 0
Core_0_L1D_rq_merged 402319
Core_0_L1D_rq_to_cache 1043120
Core_0_L1D_rq_full 0

Core_0_L1D_wq_access 1021462
Core_0_L1D_wq_forward 85
Core_0_L1D_wq_merged 36714
Core_0_L1D_wq_to_cache 984748
Core_0_L1D_wq_full 3080325

Core_0_L1D_pq_access 0
Core_0_L1D_pq_forward 0
Core_0_L1D_pq_merged 0
Core_0_L1D_pq_to_cache 0
Core_0_L1D_pq_full 0

Core_0_L1D_acc_epochs 13742
Core_0_L1D_acc_level_0 13742
Core_0_L1D_acc_level_1 0
Core_0_L1D_acc_level_2 0
Core_0_L1D_acc_level_3 0
Core_0_L1D_acc_level_4 0
Core_0_L1D_acc_level_5 0
Core_0_L1D_acc_level_6 0
Core_0_L1D_acc_level_7 0
Core_0_L1D_acc_level_8 0
Core_0_L1D_acc_level_9 0

Core_0_L1I_total_access 2815846
Core_0_L1I_total_hit 2813020
Core_0_L1I_total_miss 2826
Core_0_L1I_loads 2815846
Core_0_L1I_load_hit 2813020
Core_0_L1I_load_miss 2826
Core_0_L1I_RFOs 0
Core_0_L1I_RFO_hit 0
Core_0_L1I_RFO_miss 0
Core_0_L1I_prefetches 0
Core_0_L1I_prefetch_hit 0
Core_0_L1I_prefetch_miss 0
Core_0_L1I_writebacks 0
Core_0_L1I_writeback_hit 0
Core_0_L1I_writeback_miss 0
Core_0_L1I_prefetch_requested 0
Core_0_L1I_prefetch_dropped 0
Core_0_L1I_prefetch_issued 0
Core_0_L1I_prefetch_filled 0
Core_0_L1I_prefetch_useful 0
Core_0_L1I_prefetch_useless 0
Core_0_L1I_prefetch_late 0
Core_0_L1I_average_miss_latency 167.63977

Core_0_L1I_rq_access 10000228
Core_0_L1I_rq_forward 0
Core_0_L1I_rq_merged 7182585
Core_0_L1I_rq_to_cache 2817643
Core_0_L1I_rq_full 0

Core_0_L1I_wq_access 0
Core_0_L1I_wq_forward 0
Core_0_L1I_wq_merged 0
Core_0_L1I_wq_to_cache 0
Core_0_L1I_wq_full 0

Core_0_L1I_pq_access 0
Core_0_L1I_pq_forward 0
Core_0_L1I_pq_merged 0
Core_0_L1I_pq_to_cache 0
Core_0_L1I_pq_full 0

Core_0_L1I_acc_epochs 13742
Core_0_L1I_acc_level_0 13742
Core_0_L1I_acc_level_1 0
Core_0_L1I_acc_level_2 0
Core_0_L1I_acc_level_3 0
Core_0_L1I_acc_level_4 0
Core_0_L1I_acc_level_5 0
Core_0_L1I_acc_level_6 0
Core_0_L1I_acc_level_7 0
Core_0_L1I_acc_level_8 0
Core_0_L1I_acc_level_9 0

Core_0_L2C_total_access 193052
Core_0_L2C_total_hit 110229
Core_0_L2C_total_miss 82823
Core_0_L2C_loads 25619
Core_0_L2C_load_hit 19019
Core_0_L2C_load_miss 6600
Core_0_L2C_RFOs 82658
Core_0_L2C_RFO_hit 6449
Core_0_L2C_RFO_miss 76209
Core_0_L2C_prefetches 0
Core_0_L2C_prefetch_hit 0
Core_0_L2C_prefetch_miss 0
Core_0_L2C_writebacks 84775
Core_0_L2C_writeback_hit 84761
Core_0_L2C_writeback_miss 14
Core_0_L2C_prefetch_requested 0
Core_0_L2C_prefetch_dropped 0
Core_0_L2C_prefetch_issued 0
Core_0_L2C_prefetch_filled 0
Core_0_L2C_prefetch_useful 0
Core_0_L2C_prefetch_useless 0
Core_0_L2C_prefetch_late 0
Core_0_L2C_average_miss_latency 752.47663

Core_0_L2C_rq_access 108277
Core_0_L2C_rq_forward 0
Core_0_L2C_rq_merged 0
Core_0_L2C_rq_to_cache 108277
Core_0_L2C_rq_full 0

Core_0_L2C_wq_access 84775
Core_0_L2C_wq_forward 0
Core_0_L2C_wq_merged 0
Core_0_L2C_wq_to_cache 84775
Core_0_L2C_wq_full 0

Core_0_L2C_pq_access 0
Core_0_L2C_pq_forward 0
Core_0_L2C_pq_merged 0
Core_0_L2C_pq_to_cache 0
Core_0_L2C_pq_full 0

Core_0_L2C_acc_epochs 13742
Core_0_L2C_acc_level_0 13742
Core_0_L2C_acc_level_1 0
Core_0_L2C_acc_level_2 0
Core_0_L2C_acc_level_3 0
Core_0_L2C_acc_level_4 0
Core_0_L2C_acc_level_5 0
Core_0_L2C_acc_level_6 0
Core_0_L2C_acc_level_7 0
Core_0_L2C_acc_level_8 0
Core_0_L2C_acc_level_9 0

Core_0_LLC_total_access 161988
Core_0_LLC_total_hit 65423
Core_0_LLC_total_miss 96565
Core_0_LLC_loads 6600
Core_0_LLC_load_hit 2839
Core_0_LLC_load_miss 3761
Core_0_LLC_RFOs 76209
Core_0_LLC_RFO_hit 6374
Core_0_LLC_RFO_miss 69835
Core_0_LLC_prefetches 0
Core_0_LLC_prefetch_hit 0
Core_0_LLC_prefetch_miss 0
Core_0_LLC_writebacks 79179
Core_0_LLC_writeback_hit 56210
Core_0_LLC_writeback_miss 22969
Core_0_LLC_prefetch_requested 0
Core_0_LLC_prefetch_dropped 0
Core_0_LLC_prefetch_issued 0
Core_0_LLC_prefetch_filled 0
Core_0_LLC_prefetch_useful 0
Core_0_LLC_prefetch_useless 0
Core_0_LLC_prefetch_late 0
Core_0_LLC_average_miss_latency 617.61622

Core_0_LLC_rq_access 82809
Core_0_LLC_rq_forward 0
Core_0_LLC_rq_merged 0
Core_0_LLC_rq_to_cache 82809
Core_0_LLC_rq_full 0

Core_0_LLC_wq_access 79179
Core_0_LLC_wq_forward 0
Core_0_LLC_wq_merged 0
Core_0_LLC_wq_to_cache 79179
Core_0_LLC_wq_full 0

Core_0_LLC_pq_access 0
Core_0_LLC_pq_forward 0
Core_0_LLC_pq_merged 0
Core_0_LLC_pq_to_cache 0
Core_0_LLC_pq_full 0

Core_0_LLC_acc_epochs 13870
Core_0_LLC_acc_level_0 13870
Core_0_LLC_acc_level_1 0
Core_0_LLC_acc_level_2 0
Core_0_LLC_acc_level_3 0
Core_0_LLC_acc_level_4 0
Core_0_LLC_acc_level_5 0
Core_0_LLC_acc_level_6 0
Core_0_LLC_acc_level_7 0
Core_0_LLC_acc_level_8 0
Core_0_LLC_acc_level_9 0

Core_0_major_page_fault 0
Core_0_minor_page_fault 2274

Channel_0_RQ_row_buffer_hit 16869
Channel_0_RQ_row_buffer_miss 56727
Channel_0_WQ_row_buffer_hit 18066
Channel_0_WQ_row_buffer_miss 55524
Channel_0_WQ_full 0
Channel_0_dbus_congested 134425

avg_congested_cycle 11

DRAM_bw_pochs 55479
DRAM_bw_level_0 41086
DRAM_bw_level_1 8994
DRAM_bw_level_2 5116
DRAM_bw_level_3 283
