Original cmd-> /cluster/home/vlnitu/CA-Lab4-24-vlnitu/Pythia/bin/perceptron-no-multi-no-ship-1core --warmup_instructions=1000000 --simulation_instructions=10000000 --l2c_prefetcher_types=scooby --config=/cluster/home/vlnitu/CA-Lab4-24-vlnitu/Pythia/config/pythia.ini --mail-type=BEGIN,END  -traces /cluster/home/vlnitu/CA-Lab4-24-vlnitu/Pythia/traces/627.cam4_s-573B.champsimtrace.xz
*************************************************
   ChampSim Multicore Out-of-Order Simulator
   Last compiled: Nov 19 2024 20:10:11
*************************************************
parsing config file: /cluster/home/vlnitu/CA-Lab4-24-vlnitu/Pythia/config/pythia.ini
unable to parse section: , name: mail-type, value: BEGIN,END

trace_0 /cluster/home/vlnitu/CA-Lab4-24-vlnitu/Pythia/traces/627.cam4_s-573B.champsimtrace.xz
adding L2C_PREFETCHER: Scooby
Initialize SHIP state
warmup_instructions 1000000
simulation_instructions 10000000
champsim_seed 225
measure_ipc 0
measure_ipc_epoch 1000
measure_dram_bw 1
measure_dram_bw_epoch 256
measure_cache_acc 1
measure_cache_acc_epoch 1024
l1d_perfect 0
l2c_perfect 0
llc_perfect 0
l1d_semi_perfect 0
l2c_semi_perfect 0
llc_semi_perfect 0
semi_perfect_cache_page_buffer_size 64

num_cpus 1
cpu_freq 4000
dram_io_freq 2400
page_size 4096
block_size 64
max_read_per_cycle 8
max_fill_per_cycle 1
dram_channels 1
log2_dram_channels 0
dram_ranks 1
dram_banks 8
dram_rows 65536
dram_columns 128
dram_row_size 8
dram_size 4096
dram_pages 1048576

fetch_width 6
decode_width 6
exec_width 4
lq_width 2
sq_width 2
retire_width 4
scheduler_size 128
branch_mispredict_penalty 20
rob_size 256
lq_size 72
sq_size 56
num_instr_destinations_sparc 4
num_instr_destinations 2
num_instr_sources 4

itlb_set 16
itlb_way 8
itlb_rq_size 16
itlb_wq_size 16
itlb_pq_size 0
itlb_mshr_size 8
itlb_latency 1

dtlb_set 16
dtlb_way 4
dtlb_rq_size 16
dtlb_wq_size 16
dtlb_pq_size 0
dtlb_mshr_size 8
dtlb_latency 1

stlb_set 128
stlb_way 12
stlb_rq_size 32
stlb_wq_size 32
stlb_pq_size 0
stlb_mshr_size 16
stlb_latency 8

l1i_size 32
l1i_set 64
l1i_way 8
l1i_rq_size 64
l1i_wq_size 64
l1i_pq_size 8
l1i_mshr_size 8
l1i_latency 1

l1d_size 32
l1d_set 64
l1d_way 8
l1d_rq_size 64
l1d_wq_size 64
l1d_pq_size 8
l1d_mshr_size 16
l1d_latency 4

l2c_size 256
l2c_set 512
l2c_way 8
l2c_rq_size 32
l2c_wq_size 32
l2c_pq_size 32
l2c_mshr_size 32
l2c_latency 10

llc_size 2048
llc_set 2048
llc_way 16
llc_rq_size 32
llc_wq_size 32
llc_pq_size 32
llc_mshr_size 64
llc_latency 20

dram_channel_width 8
dram_wq_size 64
dram_rq_size 64
tRP 15
tRCD 15
tCAS 12.5
dram_dbus_turn_around_time 30
dram_write_high_wm 56
dram_write_low_wm 48
min_dram_writes_per_switch 16
dram_mtps 2400
dram_dbus_return_time 13

scooby_alpha 0.0065088
scooby_gamma 0.556301
scooby_epsilon 0.00182284
scooby_state_num_bits 10
scooby_max_states 1024
scooby_seed 200
scooby_policy EGreedy
scooby_learning_type SARSA
scooby_actions 1,3,4,5,10,11,12,22,23,30,32,-1,-3,-6,0,
scooby_max_actions 15
scooby_pt_size 256
scooby_st_size 64
scooby_max_pcs 5
scooby_max_offsets 5
scooby_max_deltas 5
scooby_reward_none -4
scooby_reward_incorrect -8
scooby_reward_correct_untimely 12
scooby_reward_correct_timely 20
scooby_brain_zero_init 0
scooby_enable_reward_all 0
scooby_enable_track_multiple 0
scooby_enable_reward_out_of_bounds 1
scooby_reward_out_of_bounds -12
scooby_state_type 1
scooby_state_hash_type 11
scooby_access_debug 0
scooby_print_access_debug 0
scooby_print_access_debug_pc deadbeef
scooby_print_access_debug_pc_count 0
scooby_print_trace 0
scooby_enable_state_action_stats 1
scooby_enable_reward_tracker_hit 0
scooby_reward_tracker_hit -2
scooby_enable_featurewise_engine 1
scooby_pref_degree 1
scooby_enable_dyn_degree 1
scooby_max_to_avg_q_thresholds 0.5,1,2,
scooby_dyn_degrees 1,2,4,4,
scooby_multi_deg_select_type 2
scooby_last_pref_offset_conf_thresholds 1,3,8,
scooby_dyn_degrees_type2 1,2,4,6,
scooby_action_tracker_size 2
scooby_high_bw_thresh 4
scooby_enable_hbw_reward 1
scooby_reward_hbw_correct_timely 20
scooby_reward_hbw_correct_untimely 12
scooby_reward_hbw_incorrect -14
scooby_reward_hbw_none -2
scooby_reward_hbw_out_of_bounds -12
scooby_reward_hbw_tracker_hit -2
scooby_last_pref_offset_conf_thresholds_hbw 1,3,8,
scooby_dyn_degrees_type2_hbw 1,2,4,6,

le_enable_trace 0
le_trace_interval 0
le_trace_file_name 
le_trace_state 0
le_enable_score_plot 0
le_plot_file_name 
le_plot_actions 
le_enable_action_trace 0
le_action_trace_interval 0
le_action_trace_name 
le_enable_action_plot 0

le_featurewise_active_features PC, PC_Delta
le_featurewise_num_tilings 3,3,
le_featurewise_num_tiles 128,128,
le_featurewise_hash_types 2,2,
le_featurewise_enable_tiling_offset 1,1,
le_featurewise_max_q_thresh 0.5
le_featurewise_enable_action_fallback 1
le_featurewise_feature_weights 1,1,
le_featurewise_enable_dynamic_weight 0
le_featurewise_weight_gradient 0.001
le_featurewise_disable_adjust_weight_all_features_align 1
le_featurewise_selective_update 0
le_featurewise_pooling_type 2
le_featurewise_enable_dyn_action_fallback 1
le_featurewise_bw_acc_check_level 1
le_featurewise_acc_thresh 2
le_featurewise_enable_trace 0
le_featurewise_trace_feature_type 0
le_featurewise_trace_feature 
le_featurewise_trace_interval 0
le_featurewise_trace_record_count 0
le_featurewise_trace_file_name 
le_featurewise_enable_score_plot 0
le_featurewise_plot_actions 
le_featurewise_plot_file_name 


Heartbeat CPU  0 instructions:    1000003 cycles:     291866 heartbeat IPC: 3.42624 cumulative IPC: 3.42624 (Simulation time: 0 hr 0 min 1 sec) 

Warmup complete CPU  0 instructions:    1000003 cycles:     291866 (Simulation time: 0 hr 0 min 1 sec) 

Heartbeat CPU  0 instructions:    2000001 cycles:    3732381 heartbeat IPC: 0.29065 cumulative IPC: 0.29065 (Simulation time: 0 hr 0 min 4 sec) 
Heartbeat CPU  0 instructions:    3000002 cycles:    4919073 heartbeat IPC: 0.84268 cumulative IPC: 0.43223 (Simulation time: 0 hr 0 min 5 sec) 
Heartbeat CPU  0 instructions:    4000000 cycles:    5801947 heartbeat IPC: 1.13266 cumulative IPC: 0.54446 (Simulation time: 0 hr 0 min 6 sec) 
Heartbeat CPU  0 instructions:    5000002 cycles:    6515729 heartbeat IPC: 1.40099 cumulative IPC: 0.64269 (Simulation time: 0 hr 0 min 8 sec) 
Heartbeat CPU  0 instructions:    6000000 cycles:    7784677 heartbeat IPC: 0.78805 cumulative IPC: 0.66731 (Simulation time: 0 hr 0 min 9 sec) 
Heartbeat CPU  0 instructions:    7000002 cycles:    9026097 heartbeat IPC: 0.80553 cumulative IPC: 0.68695 (Simulation time: 0 hr 0 min 11 sec) 
Heartbeat CPU  0 instructions:    8000000 cycles:   10363057 heartbeat IPC: 0.74796 cumulative IPC: 0.69505 (Simulation time: 0 hr 0 min 12 sec) 
Heartbeat CPU  0 instructions:    9000003 cycles:   11666461 heartbeat IPC: 0.76722 cumulative IPC: 0.70332 (Simulation time: 0 hr 0 min 14 sec) 
Heartbeat CPU  0 instructions:   10000003 cycles:   12943097 heartbeat IPC: 0.78331 cumulative IPC: 0.71139 (Simulation time: 0 hr 0 min 15 sec) 
Heartbeat CPU  0 instructions:   11000002 cycles:   13997338 heartbeat IPC: 0.94855 cumulative IPC: 0.72964 (Simulation time: 0 hr 0 min 17 sec) 
Finished CPU 0 instructions: 10000001 cycles: 13705482 cumulative IPC: 0.72964 (Simulation time: 0 hr 0 min 17 sec) 

ChampSim completed all CPUs

[ROI Statistics]
Core_0_instructions 10000001
Core_0_cycles 13705482
Core_0_IPC 0.72964

Core_0_branch_prediction_accuracy 98.66650
Core_0_branch_MPKI 1.80310
Core_0_average_ROB_occupancy_at_mispredict 140.22938

Core_0_L1D_total_access 1724240
Core_0_L1D_total_hit 1618790
Core_0_L1D_total_miss 105450
Core_0_L1D_loads 1034341
Core_0_L1D_load_hit 1011548
Core_0_L1D_load_miss 22793
Core_0_L1D_RFOs 689899
Core_0_L1D_RFO_hit 607242
Core_0_L1D_RFO_miss 82657
Core_0_L1D_prefetches 0
Core_0_L1D_prefetch_hit 0
Core_0_L1D_prefetch_miss 0
Core_0_L1D_writebacks 0
Core_0_L1D_writeback_hit 0
Core_0_L1D_writeback_miss 0
Core_0_L1D_prefetch_requested 0
Core_0_L1D_prefetch_dropped 0
Core_0_L1D_prefetch_issued 0
Core_0_L1D_prefetch_filled 0
Core_0_L1D_prefetch_useful 0
Core_0_L1D_prefetch_useless 0
Core_0_L1D_prefetch_late 0
Core_0_L1D_average_miss_latency 603.76394

Core_0_L1D_rq_access 1445473
Core_0_L1D_rq_forward 0
Core_0_L1D_rq_merged 402232
Core_0_L1D_rq_to_cache 1043161
Core_0_L1D_rq_full 0

Core_0_L1D_wq_access 1021462
Core_0_L1D_wq_forward 80
Core_0_L1D_wq_merged 36716
Core_0_L1D_wq_to_cache 984746
Core_0_L1D_wq_full 3085365

Core_0_L1D_pq_access 0
Core_0_L1D_pq_forward 0
Core_0_L1D_pq_merged 0
Core_0_L1D_pq_to_cache 0
Core_0_L1D_pq_full 0

Core_0_L1D_acc_epochs 13541
Core_0_L1D_acc_level_0 13541
Core_0_L1D_acc_level_1 0
Core_0_L1D_acc_level_2 0
Core_0_L1D_acc_level_3 0
Core_0_L1D_acc_level_4 0
Core_0_L1D_acc_level_5 0
Core_0_L1D_acc_level_6 0
Core_0_L1D_acc_level_7 0
Core_0_L1D_acc_level_8 0
Core_0_L1D_acc_level_9 0

Core_0_L1I_total_access 2814944
Core_0_L1I_total_hit 2812117
Core_0_L1I_total_miss 2827
Core_0_L1I_loads 2814944
Core_0_L1I_load_hit 2812117
Core_0_L1I_load_miss 2827
Core_0_L1I_RFOs 0
Core_0_L1I_RFO_hit 0
Core_0_L1I_RFO_miss 0
Core_0_L1I_prefetches 0
Core_0_L1I_prefetch_hit 0
Core_0_L1I_prefetch_miss 0
Core_0_L1I_writebacks 0
Core_0_L1I_writeback_hit 0
Core_0_L1I_writeback_miss 0
Core_0_L1I_prefetch_requested 0
Core_0_L1I_prefetch_dropped 0
Core_0_L1I_prefetch_issued 0
Core_0_L1I_prefetch_filled 0
Core_0_L1I_prefetch_useful 0
Core_0_L1I_prefetch_useless 0
Core_0_L1I_prefetch_late 0
Core_0_L1I_average_miss_latency 70.68482

Core_0_L1I_rq_access 10000228
Core_0_L1I_rq_forward 0
Core_0_L1I_rq_merged 7183713
Core_0_L1I_rq_to_cache 2816515
Core_0_L1I_rq_full 0

Core_0_L1I_wq_access 0
Core_0_L1I_wq_forward 0
Core_0_L1I_wq_merged 0
Core_0_L1I_wq_to_cache 0
Core_0_L1I_wq_full 0

Core_0_L1I_pq_access 0
Core_0_L1I_pq_forward 0
Core_0_L1I_pq_merged 0
Core_0_L1I_pq_to_cache 0
Core_0_L1I_pq_full 0

Core_0_L1I_acc_epochs 13541
Core_0_L1I_acc_level_0 13541
Core_0_L1I_acc_level_1 0
Core_0_L1I_acc_level_2 0
Core_0_L1I_acc_level_3 0
Core_0_L1I_acc_level_4 0
Core_0_L1I_acc_level_5 0
Core_0_L1I_acc_level_6 0
Core_0_L1I_acc_level_7 0
Core_0_L1I_acc_level_8 0
Core_0_L1I_acc_level_9 0

Core_0_L2C_total_access 288452
Core_0_L2C_total_hit 202910
Core_0_L2C_total_miss 85542
Core_0_L2C_loads 25620
Core_0_L2C_load_hit 22810
Core_0_L2C_load_miss 2810
Core_0_L2C_RFOs 82657
Core_0_L2C_RFO_hit 6390
Core_0_L2C_RFO_miss 76267
Core_0_L2C_prefetches 95401
Core_0_L2C_prefetch_hit 88954
Core_0_L2C_prefetch_miss 6447
Core_0_L2C_writebacks 84774
Core_0_L2C_writeback_hit 84756
Core_0_L2C_writeback_miss 18
Core_0_L2C_prefetch_requested 112734
Core_0_L2C_prefetch_dropped 2579
Core_0_L2C_prefetch_issued 110155
Core_0_L2C_prefetch_filled 6456
Core_0_L2C_prefetch_useful 4009
Core_0_L2C_prefetch_useless 1343
Core_0_L2C_prefetch_late 311
Core_0_L2C_average_miss_latency 744.62805

Core_0_L2C_rq_access 108277
Core_0_L2C_rq_forward 0
Core_0_L2C_rq_merged 0
Core_0_L2C_rq_to_cache 108277
Core_0_L2C_rq_full 0

Core_0_L2C_wq_access 84774
Core_0_L2C_wq_forward 0
Core_0_L2C_wq_merged 0
Core_0_L2C_wq_to_cache 84774
Core_0_L2C_wq_full 0

Core_0_L2C_pq_access 110155
Core_0_L2C_pq_forward 0
Core_0_L2C_pq_merged 12772
Core_0_L2C_pq_to_cache 97383
Core_0_L2C_pq_full 0

Core_0_L2C_acc_epochs 13541
Core_0_L2C_acc_level_0 12292
Core_0_L2C_acc_level_1 288
Core_0_L2C_acc_level_2 206
Core_0_L2C_acc_level_3 139
Core_0_L2C_acc_level_4 94
Core_0_L2C_acc_level_5 142
Core_0_L2C_acc_level_6 69
Core_0_L2C_acc_level_7 67
Core_0_L2C_acc_level_8 49
Core_0_L2C_acc_level_9 195

Core_0_LLC_total_access 165455
Core_0_LLC_total_hit 67421
Core_0_LLC_total_miss 98034
Core_0_LLC_loads 2500
Core_0_LLC_load_hit 882
Core_0_LLC_load_miss 1618
Core_0_LLC_RFOs 76266
Core_0_LLC_RFO_hit 6466
Core_0_LLC_RFO_miss 69800
Core_0_LLC_prefetches 6758
Core_0_LLC_prefetch_hit 3111
Core_0_LLC_prefetch_miss 3647
Core_0_LLC_writebacks 79931
Core_0_LLC_writeback_hit 56962
Core_0_LLC_writeback_miss 22969
Core_0_LLC_prefetch_requested 0
Core_0_LLC_prefetch_dropped 0
Core_0_LLC_prefetch_issued 0
Core_0_LLC_prefetch_filled 3656
Core_0_LLC_prefetch_useful 144
Core_0_LLC_prefetch_useless 11
Core_0_LLC_prefetch_late 0
Core_0_LLC_average_miss_latency 621.97565

Core_0_LLC_rq_access 78766
Core_0_LLC_rq_forward 0
Core_0_LLC_rq_merged 0
Core_0_LLC_rq_to_cache 78766
Core_0_LLC_rq_full 0

Core_0_LLC_wq_access 79931
Core_0_LLC_wq_forward 0
Core_0_LLC_wq_merged 0
Core_0_LLC_wq_to_cache 79931
Core_0_LLC_wq_full 0

Core_0_LLC_pq_access 6767
Core_0_LLC_pq_forward 0
Core_0_LLC_pq_merged 0
Core_0_LLC_pq_to_cache 6767
Core_0_LLC_pq_full 0

Core_0_LLC_acc_epochs 13670
Core_0_LLC_acc_level_0 13596
Core_0_LLC_acc_level_1 38
Core_0_LLC_acc_level_2 21
Core_0_LLC_acc_level_3 0
Core_0_LLC_acc_level_4 1
Core_0_LLC_acc_level_5 12
Core_0_LLC_acc_level_6 0
Core_0_LLC_acc_level_7 0
Core_0_LLC_acc_level_8 0
Core_0_LLC_acc_level_9 2

Core_0_major_page_fault 0
Core_0_minor_page_fault 2274

scooby_st_lookup 25630
scooby_st_hit 24687
scooby_st_evict 879
scooby_st_insert 943
scooby_st_streaming 0

scooby_predict_called 25630
scooby_predict_out_of_bounds 553
scooby_predict_action_1 21001
scooby_predict_issue_action_1 20477
scooby_predict_hit_action_1 524
scooby_predict_out_of_bounds_action_1 341
scooby_predict_action_3 3747
scooby_predict_issue_action_3 3635
scooby_predict_hit_action_3 112
scooby_predict_out_of_bounds_action_3 188
scooby_predict_action_4 209
scooby_predict_issue_action_4 191
scooby_predict_hit_action_4 18
scooby_predict_out_of_bounds_action_4 8
scooby_predict_action_5 69
scooby_predict_issue_action_5 61
scooby_predict_hit_action_5 8
scooby_predict_out_of_bounds_action_5 6
scooby_predict_action_10 32
scooby_predict_issue_action_10 31
scooby_predict_hit_action_10 1
scooby_predict_out_of_bounds_action_10 1
scooby_predict_action_11 6
scooby_predict_issue_action_11 5
scooby_predict_hit_action_11 1
scooby_predict_out_of_bounds_action_11 1
scooby_predict_action_12 1
scooby_predict_issue_action_12 1
scooby_predict_hit_action_12 0
scooby_predict_out_of_bounds_action_12 0
scooby_predict_action_22 1
scooby_predict_issue_action_22 1
scooby_predict_hit_action_22 0
scooby_predict_out_of_bounds_action_22 1
scooby_predict_action_23 1
scooby_predict_issue_action_23 0
scooby_predict_hit_action_23 1
scooby_predict_out_of_bounds_action_23 2
scooby_predict_action_30 1
scooby_predict_issue_action_30 0
scooby_predict_hit_action_30 1
scooby_predict_out_of_bounds_action_30 2
scooby_predict_action_32 3
scooby_predict_issue_action_32 3
scooby_predict_hit_action_32 0
scooby_predict_out_of_bounds_action_32 3
scooby_predict_action_-1 1
scooby_predict_issue_action_-1 0
scooby_predict_hit_action_-1 1
scooby_predict_out_of_bounds_action_-1 0
scooby_predict_action_-3 2
scooby_predict_issue_action_-3 0
scooby_predict_hit_action_-3 2
scooby_predict_out_of_bounds_action_-3 0
scooby_predict_action_-6 2
scooby_predict_issue_action_-6 0
scooby_predict_hit_action_-6 2
scooby_predict_out_of_bounds_action_-6 0
scooby_predict_action_0 1
scooby_predict_issue_action_0 0
scooby_predict_hit_action_0 0
scooby_predict_out_of_bounds_action_0 0
scooby_predict_multi_deg_called 20879
scooby_predict_predicted 112734
scooby_predict_multi_deg 88329
scooby_predict_multi_deg_2 20455
scooby_predict_multi_deg_3 18651
scooby_predict_multi_deg_4 18280
scooby_predict_multi_deg_5 15633
scooby_predict_multi_deg_6 15310
scooby_predict_multi_deg_7 0
scooby_predict_multi_deg_8 0
scooby_predict_multi_deg_9 0
scooby_predict_multi_deg_10 0
scooby_predict_multi_deg_11 0
scooby_predict_multi_deg_12 0
scooby_predict_multi_deg_13 0
scooby_predict_multi_deg_14 0
scooby_predict_multi_deg_15 0
scooby_predict_multi_deg_16 0

scooby_selected_deg_1 3526
scooby_selected_deg_2 1497
scooby_selected_deg_3 0
scooby_selected_deg_4 2523
scooby_selected_deg_5 0
scooby_selected_deg_6 16859
scooby_selected_deg_7 0
scooby_selected_deg_8 0
scooby_selected_deg_9 0
scooby_selected_deg_10 0
scooby_selected_deg_11 0
scooby_selected_deg_12 0
scooby_selected_deg_13 0
scooby_selected_deg_14 0
scooby_selected_deg_15 0
scooby_selected_deg_16 0

scooby_state_623580|3|1 55,0,0,0,0,0,0,0,0,0,0,0,0,0,0,55,
scooby_state_623580|63|1 55,0,0,0,0,0,0,0,0,0,0,0,0,0,0,55,
scooby_state_623580|6|1 55,0,0,0,0,0,0,0,0,0,0,0,0,0,0,55,
scooby_state_623580|2|1 55,0,0,0,0,0,0,0,0,0,0,0,0,0,0,55,
scooby_state_623580|1|1 55,0,0,0,0,0,0,0,0,0,0,0,0,0,0,55,
scooby_state_623580|4|1 55,0,0,0,0,0,0,0,0,0,0,0,0,0,0,55,
scooby_state_623580|62|1 55,0,0,0,0,0,0,0,0,0,0,0,0,0,0,55,
scooby_state_623580|5|1 55,0,0,0,0,0,0,0,0,0,0,0,0,0,0,55,
scooby_state_623580|22|1 51,0,0,0,0,0,0,0,0,0,0,0,0,0,0,51,
scooby_state_623580|61|1 51,0,0,0,0,0,0,0,0,0,0,0,0,0,0,51,
scooby_state_623580|27|1 50,0,0,0,0,0,0,0,0,0,0,0,0,0,0,50,
scooby_state_623580|15|1 50,0,0,0,0,0,0,0,0,0,0,0,0,0,0,50,
scooby_state_623580|43|1 50,0,0,0,0,0,0,0,0,0,0,0,0,0,0,50,
scooby_state_623580|31|1 50,0,0,0,0,0,0,0,0,0,0,0,0,0,0,50,
scooby_state_623580|17|1 50,0,0,0,0,0,0,0,0,0,0,0,0,0,0,50,
scooby_state_623580|42|1 50,0,0,0,0,0,0,0,0,0,0,0,0,0,0,50,
scooby_state_623580|37|1 50,0,0,0,0,0,0,0,0,0,0,0,0,0,0,50,
scooby_state_623580|34|1 50,0,0,0,0,0,0,0,0,0,0,0,0,0,0,50,
scooby_state_623580|44|1 50,0,0,0,0,0,0,0,0,0,0,0,0,0,0,50,
scooby_state_623580|32|1 50,0,0,0,0,0,0,0,0,0,0,0,0,0,0,50,
scooby_state_623580|19|1 50,0,0,0,0,0,0,0,0,0,0,0,0,0,0,50,
scooby_state_623580|9|1 50,0,0,0,0,0,0,0,0,0,0,0,0,0,0,50,
scooby_state_623580|30|1 50,0,0,0,0,0,0,0,0,0,0,0,0,0,0,50,
scooby_state_623580|38|1 50,0,0,0,0,0,0,0,0,0,0,0,0,0,0,50,
scooby_state_623580|29|1 49,0,1,0,0,0,0,0,0,0,0,0,0,0,0,50,
scooby_state_623580|54|1 50,0,0,0,0,0,0,0,0,0,0,0,0,0,0,50,
scooby_state_623580|20|1 49,0,0,0,1,0,0,0,0,0,0,0,0,0,0,50,
scooby_state_623580|8|1 50,0,0,0,0,0,0,0,0,0,0,0,0,0,0,50,
scooby_state_623580|25|1 50,0,0,0,0,0,0,0,0,0,0,0,0,0,0,50,
scooby_state_623580|23|1 50,0,0,0,0,0,0,0,0,0,0,0,0,0,0,50,
scooby_state_623580|11|1 50,0,0,0,0,0,0,0,0,0,0,0,0,0,0,50,
scooby_state_623580|41|1 49,0,0,0,0,1,0,0,0,0,0,0,0,0,0,50,
scooby_state_623580|52|1 50,0,0,0,0,0,0,0,0,0,0,0,0,0,0,50,
scooby_state_623580|55|1 50,0,0,0,0,0,0,0,0,0,0,0,0,0,0,50,
scooby_state_623580|60|1 49,0,0,0,0,0,0,0,1,0,0,0,0,0,0,50,
scooby_state_623580|59|1 50,0,0,0,0,0,0,0,0,0,0,0,0,0,0,50,
scooby_state_623580|28|1 50,0,0,0,0,0,0,0,0,0,0,0,0,0,0,50,
scooby_state_623580|46|1 50,0,0,0,0,0,0,0,0,0,0,0,0,0,0,50,
scooby_state_623580|47|1 50,0,0,0,0,0,0,0,0,0,0,0,0,0,0,50,
scooby_state_623580|21|1 50,0,0,0,0,0,0,0,0,0,0,0,0,0,0,50,
scooby_state_623580|26|1 50,0,0,0,0,0,0,0,0,0,0,0,0,0,0,50,
scooby_state_623580|56|1 50,0,0,0,0,0,0,0,0,0,0,0,0,0,0,50,
scooby_state_623580|36|1 50,0,0,0,0,0,0,0,0,0,0,0,0,0,0,50,
scooby_state_623580|39|1 49,0,0,0,0,0,1,0,0,0,0,0,0,0,0,50,
scooby_state_623580|24|1 50,0,0,0,0,0,0,0,0,0,0,0,0,0,0,50,
scooby_state_623580|40|1 50,0,0,0,0,0,0,0,0,0,0,0,0,0,0,50,
scooby_state_623580|58|1 49,0,0,0,0,0,0,0,0,0,0,0,1,0,0,50,
scooby_state_623580|12|1 50,0,0,0,0,0,0,0,0,0,0,0,0,0,0,50,
scooby_state_623580|57|1 50,0,0,0,0,0,0,0,0,0,0,0,0,0,0,50,
scooby_state_623580|51|1 50,0,0,0,0,0,0,0,0,0,0,0,0,0,0,50,
scooby_state_623580|35|1 50,0,0,0,0,0,0,0,0,0,0,0,0,0,0,50,
scooby_state_623580|53|1 49,0,1,0,0,0,0,0,0,0,0,0,0,0,0,50,
scooby_state_623580|7|1 50,0,0,0,0,0,0,0,0,0,0,0,0,0,0,50,
scooby_state_623580|45|1 50,0,0,0,0,0,0,0,0,0,0,0,0,0,0,50,
scooby_state_623580|49|1 50,0,0,0,0,0,0,0,0,0,0,0,0,0,0,50,
scooby_state_623580|50|1 50,0,0,0,0,0,0,0,0,0,0,0,0,0,0,50,
scooby_state_623580|33|1 50,0,0,0,0,0,0,0,0,0,0,0,0,0,0,50,
scooby_state_623580|14|1 50,0,0,0,0,0,0,0,0,0,0,0,0,0,0,50,
scooby_state_623580|10|1 50,0,0,0,0,0,0,0,0,0,0,0,0,0,0,50,
scooby_state_623580|48|1 50,0,0,0,0,0,0,0,0,0,0,0,0,0,0,50,
scooby_state_623580|16|1 50,0,0,0,0,0,0,0,0,0,0,0,0,0,0,50,
scooby_state_623580|13|1 50,0,0,0,0,0,0,0,0,0,0,0,0,0,0,50,
scooby_state_623580|18|1 50,0,0,0,0,0,0,0,0,0,0,0,0,0,0,50,
scooby_state_926260|38|25 41,0,0,0,0,0,0,0,0,0,0,0,0,0,0,41,
scooby_state_65c910|54|1 0,41,0,0,0,0,0,0,0,0,0,0,0,0,0,41,
scooby_state_926260|47|25 41,0,0,0,0,0,0,0,0,0,0,0,0,0,0,41,
scooby_state_926260|33|25 41,0,0,0,0,0,0,0,0,0,0,0,0,0,0,41,
scooby_state_65c94f|62|1 41,0,0,0,0,0,0,0,0,0,0,0,0,0,0,41,
scooby_state_65c910|57|1 0,41,0,0,0,0,0,0,0,0,0,0,0,0,0,41,
scooby_state_926260|52|25 41,0,0,0,0,0,0,0,0,0,0,0,0,0,0,41,
scooby_state_926260|55|25 40,1,0,0,0,0,0,0,0,0,0,0,0,0,0,41,
scooby_state_926260|44|25 41,0,0,0,0,0,0,0,0,0,0,0,0,0,0,41,
scooby_state_926260|58|25 41,0,0,0,0,0,0,0,0,0,0,0,0,0,0,41,
scooby_state_926260|30|25 41,0,0,0,0,0,0,0,0,0,0,0,0,0,0,41,
scooby_state_926260|41|25 40,0,0,1,0,0,0,0,0,0,0,0,0,0,0,41,
scooby_state_926260|27|25 41,0,0,0,0,0,0,0,0,0,0,0,0,0,0,41,
scooby_state_926260|36|25 41,0,0,0,0,0,0,0,0,0,0,0,0,0,0,41,
scooby_state_65c910|60|1 0,41,0,0,0,0,0,0,0,0,0,0,0,0,0,41,
scooby_state_926260|35|25 41,0,0,0,0,0,0,0,0,0,0,0,0,0,0,41,
scooby_state_926260|49|25 41,0,0,0,0,0,0,0,0,0,0,0,0,0,0,41,
scooby_state_926260|15|-24 40,0,0,0,0,0,0,0,0,0,0,0,0,0,0,40,
scooby_state_926260|26|25 40,0,0,0,0,0,0,0,0,0,0,0,0,0,0,40,
scooby_state_926260|3|-49 36,4,0,0,0,0,0,0,0,0,0,0,0,0,0,40,
scooby_state_926260|50|25 40,0,0,0,0,0,0,0,0,0,0,0,0,0,0,40,
scooby_state_926260|4|-49 36,4,0,0,0,0,0,0,0,0,0,0,0,0,0,40,
scooby_state_926260|46|25 40,0,0,0,0,0,0,0,0,0,0,0,0,0,0,40,
scooby_state_926260|51|25 40,0,0,0,0,0,0,0,0,0,0,0,0,0,0,40,
scooby_state_926260|32|25 40,0,0,0,0,0,0,0,0,0,0,0,0,0,0,40,
scooby_state_926260|25|25 40,0,0,0,0,0,0,0,0,0,0,0,0,0,0,40,
scooby_state_926260|0|-49 36,4,0,0,0,0,0,0,0,0,0,0,0,0,0,40,
scooby_state_926260|42|25 40,0,0,0,0,0,0,0,0,0,0,0,0,0,0,40,
scooby_state_926260|29|25 40,0,0,0,0,0,0,0,0,0,0,0,0,0,0,40,
scooby_state_926260|37|25 40,0,0,0,0,0,0,0,0,0,0,0,0,0,0,40,
scooby_state_926260|8|-49 37,3,0,0,0,0,0,0,0,0,0,0,0,0,0,40,
scooby_state_926260|43|25 40,0,0,0,0,0,0,0,0,0,0,0,0,0,0,40,
scooby_state_926260|7|-49 36,4,0,0,0,0,0,0,0,0,0,0,0,0,0,40,
scooby_state_926260|23|-24 40,0,0,0,0,0,0,0,0,0,0,0,0,0,0,40,
scooby_state_926260|9|-49 37,3,0,0,0,0,0,0,0,0,0,0,0,0,0,40,
scooby_state_926260|20|-24 40,0,0,0,0,0,0,0,0,0,0,0,0,0,0,40,
scooby_state_926260|39|25 40,0,0,0,0,0,0,0,0,0,0,0,0,0,0,40,
scooby_state_926260|48|25 40,0,0,0,0,0,0,0,0,0,0,0,0,0,0,40,
scooby_state_926260|59|25 40,0,0,0,0,0,0,0,0,0,0,0,0,0,0,40,
scooby_state_926260|54|25 39,0,0,0,0,0,0,0,0,0,1,0,0,0,0,40,
scooby_state_926260|40|25 40,0,0,0,0,0,0,0,0,0,0,0,0,0,0,40,
scooby_state_926260|19|-24 40,0,0,0,0,0,0,0,0,0,0,0,0,0,0,40,
scooby_state_926260|5|-49 37,3,0,0,0,0,0,0,0,0,0,0,0,0,0,40,
scooby_state_926260|53|25 40,0,0,0,0,0,0,0,0,0,0,0,0,0,0,40,
scooby_state_926260|21|-24 40,0,0,0,0,0,0,0,0,0,0,0,0,0,0,40,
scooby_state_926260|24|-24 40,0,0,0,0,0,0,0,0,0,0,0,0,0,0,40,
scooby_state_926260|22|-24 40,0,0,0,0,0,0,0,0,0,0,0,0,0,0,40,
scooby_state_926260|45|25 40,0,0,0,0,0,0,0,0,0,0,0,0,0,0,40,
scooby_state_926260|18|-24 39,1,0,0,0,0,0,0,0,0,0,0,0,0,0,40,
scooby_state_926260|60|25 40,0,0,0,0,0,0,0,0,0,0,0,0,0,0,40,
scooby_state_926260|31|25 40,0,0,0,0,0,0,0,0,0,0,0,0,0,0,40,
scooby_state_926260|16|-24 40,0,0,0,0,0,0,0,0,0,0,0,0,0,0,40,
scooby_state_926260|6|-49 36,4,0,0,0,0,0,0,0,0,0,0,0,0,0,40,
scooby_state_926260|17|-24 40,0,0,0,0,0,0,0,0,0,0,0,0,0,0,40,
scooby_state_623580|0|-63 40,0,0,0,0,0,0,0,0,0,0,0,0,0,0,40,
scooby_state_926260|10|-49 37,3,0,0,0,0,0,0,0,0,0,0,0,0,0,40,
scooby_state_65c94f|4|1 40,0,0,0,0,0,0,0,0,0,0,0,0,0,0,40,
scooby_state_926260|56|25 40,0,0,0,0,0,0,0,0,0,0,0,0,0,0,40,
scooby_state_926260|34|25 40,0,0,0,0,0,0,0,0,0,0,0,0,0,0,40,
scooby_state_926260|1|-49 35,4,0,1,0,0,0,0,0,0,0,0,0,0,0,40,
scooby_state_65c94f|6|1 40,0,0,0,0,0,0,0,0,0,0,0,0,0,0,40,
scooby_state_926260|28|25 40,0,0,0,0,0,0,0,0,0,0,0,0,0,0,40,
scooby_state_65c94f|3|1 40,0,0,0,0,0,0,0,0,0,0,0,0,0,0,40,
scooby_state_926260|2|-49 37,3,0,0,0,0,0,0,0,0,0,0,0,0,0,40,
scooby_state_926260|57|25 40,0,0,0,0,0,0,0,0,0,0,0,0,0,0,40,
scooby_state_65c910|58|1 0,39,0,0,0,0,0,0,0,0,0,0,0,0,0,39,
scooby_state_65c910|59|1 0,39,0,0,0,0,0,0,0,0,0,0,0,0,0,39,
scooby_state_65c94f|1|1 38,0,0,0,1,0,0,0,0,0,0,0,0,0,0,39,
scooby_state_65c910|56|1 0,39,0,0,0,0,0,0,0,0,0,0,0,0,0,39,
scooby_state_65c910|51|1 1,38,0,0,0,0,0,0,0,0,0,0,0,0,0,39,
scooby_state_65c910|52|1 1,38,0,0,0,0,0,0,0,0,0,0,0,0,0,39,
scooby_state_65c910|53|1 1,38,0,0,0,0,0,0,0,0,0,0,0,0,0,39,
scooby_state_65c910|55|1 0,38,0,0,0,0,0,0,0,0,0,0,0,1,0,39,
scooby_state_926260|11|-49 36,3,0,0,0,0,0,0,0,0,0,0,0,0,0,39,
scooby_state_65c94f|37|1 38,0,0,0,0,0,0,0,0,0,0,0,0,0,0,38,
scooby_state_65c94f|48|1 38,0,0,0,0,0,0,0,0,0,0,0,0,0,0,38,
scooby_state_65c94f|61|1 38,0,0,0,0,0,0,0,0,0,0,0,0,0,0,38,
scooby_state_65c910|21|1 0,37,0,0,0,0,0,0,0,0,0,0,0,0,0,37,
scooby_state_65c910|63|1 0,37,0,0,0,0,0,0,0,0,0,0,0,0,0,37,
scooby_state_926260|63|25 37,0,0,0,0,0,0,0,0,0,0,0,0,0,0,37,
scooby_state_65c910|46|1 0,37,0,0,0,0,0,0,0,0,0,0,0,0,0,37,
scooby_state_65c94f|7|1 37,0,0,0,0,0,0,0,0,0,0,0,0,0,0,37,
scooby_state_65c94f|54|1 37,0,0,0,0,0,0,0,0,0,0,0,0,0,0,37,
scooby_state_65c910|1|1 0,37,0,0,0,0,0,0,0,0,0,0,0,0,0,37,
scooby_state_65c910|4|1 0,36,0,0,0,0,0,0,0,1,0,0,0,0,0,37,
scooby_state_65c94f|53|1 37,0,0,0,0,0,0,0,0,0,0,0,0,0,0,37,
scooby_state_65c94f|36|1 37,0,0,0,0,0,0,0,0,0,0,0,0,0,0,37,
scooby_state_65c910|18|1 0,37,0,0,0,0,0,0,0,0,0,0,0,0,0,37,
scooby_state_65c94f|59|1 37,0,0,0,0,0,0,0,0,0,0,0,0,0,0,37,
scooby_state_65c94f|34|1 37,0,0,0,0,0,0,0,0,0,0,0,0,0,0,37,
scooby_state_65c94f|11|1 37,0,0,0,0,0,0,0,0,0,0,0,0,0,0,37,
scooby_state_926260|61|25 37,0,0,0,0,0,0,0,0,0,0,0,0,0,0,37,
scooby_state_65c94f|9|1 37,0,0,0,0,0,0,0,0,0,0,0,0,0,0,37,
scooby_state_65c910|7|1 0,37,0,0,0,0,0,0,0,0,0,0,0,0,0,37,
scooby_state_65c94f|12|1 37,0,0,0,0,0,0,0,0,0,0,0,0,0,0,37,
scooby_state_65c910|32|1 0,37,0,0,0,0,0,0,0,0,0,0,0,0,0,37,
scooby_state_65c94f|56|1 37,0,0,0,0,0,0,0,0,0,0,0,0,0,0,37,
scooby_state_65c94f|63|1 37,0,0,0,0,0,0,0,0,0,0,0,0,0,0,37,
scooby_state_65c910|40|1 0,37,0,0,0,0,0,0,0,0,0,0,0,0,0,37,
scooby_state_65c910|43|1 0,37,0,0,0,0,0,0,0,0,0,0,0,0,0,37,
scooby_state_65c94f|57|1 37,0,0,0,0,0,0,0,0,0,0,0,0,0,0,37,
scooby_state_65c94f|32|1 37,0,0,0,0,0,0,0,0,0,0,0,0,0,0,37,
scooby_state_65c910|29|1 0,36,0,0,0,0,0,0,0,0,0,0,0,0,0,36,
scooby_state_65c910|24|1 0,36,0,0,0,0,0,0,0,0,0,0,0,0,0,36,
scooby_state_65c94f|14|1 36,0,0,0,0,0,0,0,0,0,0,0,0,0,0,36,
scooby_state_65c910|35|1 0,36,0,0,0,0,0,0,0,0,0,0,0,0,0,36,
scooby_state_65c94f|25|1 36,0,0,0,0,0,0,0,0,0,0,0,0,0,0,36,
scooby_state_65c910|48|1 0,36,0,0,0,0,0,0,0,0,0,0,0,0,0,36,
scooby_state_926260|12|-49 33,3,0,0,0,0,0,0,0,0,0,0,0,0,0,36,
scooby_state_65c94f|18|1 36,0,0,0,0,0,0,0,0,0,0,0,0,0,0,36,
scooby_state_65c94f|26|1 36,0,0,0,0,0,0,0,0,0,0,0,0,0,0,36,
scooby_state_926260|13|-49 33,3,0,0,0,0,0,0,0,0,0,0,0,0,0,36,
scooby_state_65c910|15|1 0,36,0,0,0,0,0,0,0,0,0,0,0,0,0,36,
scooby_state_65c94f|45|1 36,0,0,0,0,0,0,0,0,0,0,0,0,0,0,36,
scooby_state_65c910|62|1 0,36,0,0,0,0,0,0,0,0,0,0,0,0,0,36,
scooby_state_65c94f|15|1 36,0,0,0,0,0,0,0,0,0,0,0,0,0,0,36,
scooby_state_926260|14|-49 32,4,0,0,0,0,0,0,0,0,0,0,0,0,0,36,
scooby_state_65c94f|50|1 36,0,0,0,0,0,0,0,0,0,0,0,0,0,0,36,
scooby_state_65c910|61|1 0,36,0,0,0,0,0,0,0,0,0,0,0,0,0,36,
scooby_state_65c910|38|1 0,36,0,0,0,0,0,0,0,0,0,0,0,0,0,36,
scooby_state_65c94f|5|1 35,0,0,0,0,1,0,0,0,0,0,0,0,0,0,36,
scooby_state_65c910|10|1 0,36,0,0,0,0,0,0,0,0,0,0,0,0,0,36,
scooby_state_65c94f|17|1 36,0,0,0,0,0,0,0,0,0,0,0,0,0,0,36,
scooby_state_65c94f|51|1 36,0,0,0,0,0,0,0,0,0,0,0,0,0,0,36,
scooby_state_65c94f|43|1 36,0,0,0,0,0,0,0,0,0,0,0,0,0,0,36,
scooby_state_926260|62|25 36,0,0,0,0,0,0,0,0,0,0,0,0,0,0,36,
scooby_state_65c94f|40|1 36,0,0,0,0,0,0,0,0,0,0,0,0,0,0,36,
scooby_state_65c94f|39|1 36,0,0,0,0,0,0,0,0,0,0,0,0,0,0,36,
scooby_state_65c94f|31|1 36,0,0,0,0,0,0,0,0,0,0,0,0,0,0,36,
scooby_state_65c94f|20|1 36,0,0,0,0,0,0,0,0,0,0,0,0,0,0,36,
scooby_state_65c94f|42|1 36,0,0,0,0,0,0,0,0,0,0,0,0,0,0,36,
scooby_state_65c910|26|1 0,36,0,0,0,0,0,0,0,0,0,0,0,0,0,36,
scooby_state_65c910|49|1 0,36,0,0,0,0,0,0,0,0,0,0,0,0,0,36,
scooby_state_65c94f|28|1 36,0,0,0,0,0,0,0,0,0,0,0,0,0,0,36,
scooby_state_65c94f|29|1 36,0,0,0,0,0,0,0,0,0,0,0,0,0,0,36,
scooby_state_65c94f|23|1 36,0,0,0,0,0,0,0,0,0,0,0,0,0,0,36,
scooby_state_65c910|45|1 0,35,0,0,0,0,0,0,0,0,0,0,0,0,0,35,
scooby_state_65c910|23|1 0,35,0,0,0,0,0,0,0,0,0,0,0,0,0,35,
scooby_state_65c910|19|1 0,35,0,0,0,0,0,0,0,0,0,0,0,0,0,35,
scooby_state_65c910|22|1 0,35,0,0,0,0,0,0,0,0,0,0,0,0,0,35,
scooby_state_65c910|27|1 0,34,0,0,0,0,0,0,0,0,0,0,1,0,0,35,
scooby_state_65c910|20|1 0,35,0,0,0,0,0,0,0,0,0,0,0,0,0,35,
scooby_state_65c910|3|1 0,35,0,0,0,0,0,0,0,0,0,0,0,0,0,35,
scooby_state_65c910|9|1 0,35,0,0,0,0,0,0,0,0,0,0,0,0,0,35,
scooby_state_65c910|42|1 0,35,0,0,0,0,0,0,0,0,0,0,0,0,0,35,
scooby_state_65c910|2|1 0,35,0,0,0,0,0,0,0,0,0,0,0,0,0,35,
scooby_state_65c910|34|1 0,35,0,0,0,0,0,0,0,0,0,0,0,0,0,35,
scooby_state_65c94f|49|1 35,0,0,0,0,0,0,0,0,0,0,0,0,0,0,35,
scooby_state_65c910|33|1 0,35,0,0,0,0,0,0,0,0,0,0,0,0,0,35,
scooby_state_65c910|37|1 0,35,0,0,0,0,0,0,0,0,0,0,0,0,0,35,
scooby_state_65c910|41|1 0,35,0,0,0,0,0,0,0,0,0,0,0,0,0,35,
scooby_state_65c910|39|1 0,35,0,0,0,0,0,0,0,0,0,0,0,0,0,35,
scooby_state_65c910|44|1 0,35,0,0,0,0,0,0,0,0,0,0,0,0,0,35,
scooby_state_65c910|13|1 0,35,0,0,0,0,0,0,0,0,0,0,0,0,0,35,
scooby_state_65c910|47|1 0,35,0,0,0,0,0,0,0,0,0,0,0,0,0,35,
scooby_state_65c94f|2|1 35,0,0,0,0,0,0,0,0,0,0,0,0,0,0,35,
scooby_state_65c910|8|1 0,35,0,0,0,0,0,0,0,0,0,0,0,0,0,35,
scooby_state_65c910|25|1 0,35,0,0,0,0,0,0,0,0,0,0,0,0,0,35,
scooby_state_65c910|5|1 0,35,0,0,0,0,0,0,0,0,0,0,0,0,0,35,
scooby_state_65c910|6|1 0,35,0,0,0,0,0,0,0,0,0,0,0,0,0,35,
scooby_state_65c910|50|1 0,35,0,0,0,0,0,0,0,0,0,0,0,0,0,35,
scooby_state_65c910|31|1 0,34,0,0,0,0,0,0,0,0,0,0,0,0,0,34,
scooby_state_65c910|17|1 0,34,0,0,0,0,0,0,0,0,0,0,0,0,0,34,
scooby_state_65c910|30|1 0,34,0,0,0,0,0,0,0,0,0,0,0,0,0,34,
scooby_state_65c94f|35|1 33,0,0,0,0,0,0,0,0,1,0,0,0,0,0,34,
scooby_state_65c910|14|1 0,34,0,0,0,0,0,0,0,0,0,0,0,0,0,34,
scooby_state_65c94f|21|1 34,0,0,0,0,0,0,0,0,0,0,0,0,0,0,34,
scooby_state_65c910|16|1 0,33,0,0,0,0,0,0,1,0,0,0,0,0,0,34,
scooby_state_65c910|28|1 0,34,0,0,0,0,0,0,0,0,0,0,0,0,0,34,
scooby_state_65c94f|60|1 34,0,0,0,0,0,0,0,0,0,0,0,0,0,0,34,
scooby_state_65c94f|10|1 34,0,0,0,0,0,0,0,0,0,0,0,0,0,0,34,
scooby_state_65c94f|55|1 34,0,0,0,0,0,0,0,0,0,0,0,0,0,0,34,
scooby_state_65c910|12|1 0,34,0,0,0,0,0,0,0,0,0,0,0,0,0,34,
scooby_state_65c910|36|1 0,33,0,0,0,0,0,0,0,0,0,0,0,0,0,33,
scooby_state_65c94f|13|1 33,0,0,0,0,0,0,0,0,0,0,0,0,0,0,33,
scooby_state_65c94f|47|1 33,0,0,0,0,0,0,0,0,0,0,0,0,0,0,33,
scooby_state_65c910|11|1 0,33,0,0,0,0,0,0,0,0,0,0,0,0,0,33,
scooby_state_65c94f|46|1 33,0,0,0,0,0,0,0,0,0,0,0,0,0,0,33,
scooby_state_65c94f|24|1 33,0,0,0,0,0,0,0,0,0,0,0,0,0,0,33,
scooby_state_65c94f|8|1 33,0,0,0,0,0,0,0,0,0,0,0,0,0,0,33,
scooby_state_65c94f|38|1 33,0,0,0,0,0,0,0,0,0,0,0,0,0,0,33,
scooby_state_65c94f|58|1 33,0,0,0,0,0,0,0,0,0,0,0,0,0,0,33,
scooby_state_65c94f|33|1 33,0,0,0,0,0,0,0,0,0,0,0,0,0,0,33,
scooby_state_65c94f|22|1 33,0,0,0,0,0,0,0,0,0,0,0,0,0,0,33,
scooby_state_65c94f|19|1 32,0,0,0,0,0,0,0,0,0,0,0,0,0,0,32,
scooby_state_65c94f|41|1 32,0,0,0,0,0,0,0,0,0,0,0,0,0,0,32,
scooby_state_65c94f|16|1 32,0,0,0,0,0,0,0,0,0,0,0,0,0,0,32,
scooby_state_65c94f|52|1 32,0,0,0,0,0,0,0,0,0,0,0,0,0,0,32,
scooby_state_65c94f|27|1 32,0,0,0,0,0,0,0,0,0,0,0,0,0,0,32,
scooby_state_65c94f|30|1 32,0,0,0,0,0,0,0,0,0,0,0,0,0,0,32,
scooby_state_65c94f|44|1 32,0,0,0,0,0,0,0,0,0,0,0,0,0,0,32,
scooby_state_a79ee4|54|0 12,1,0,0,0,0,0,0,0,0,0,0,0,0,0,13,
scooby_state_65cd70|57|1 11,0,0,0,0,0,0,0,0,0,0,0,0,0,0,11,
scooby_state_65e720|61|25 11,0,0,0,0,0,0,0,0,0,0,0,0,0,0,11,
scooby_state_65cd70|54|1 11,0,0,0,0,0,0,0,0,0,0,0,0,0,0,11,
scooby_state_65cd70|60|1 11,0,0,0,0,0,0,0,0,0,0,0,0,0,0,11,
scooby_state_65ce80|44|1 11,0,0,0,0,0,0,0,0,0,0,0,0,0,0,11,
scooby_state_65cd70|53|1 11,0,0,0,0,0,0,0,0,0,0,0,0,0,0,11,
scooby_state_65d150|46|1 11,0,0,0,0,0,0,0,0,0,0,0,0,0,0,11,
scooby_state_65ce80|41|1 11,0,0,0,0,0,0,0,0,0,0,0,0,0,0,11,
scooby_state_65ce80|37|1 11,0,0,0,0,0,0,0,0,0,0,0,0,0,0,11,
scooby_state_65d7c0|52|25 10,1,0,0,0,0,0,0,0,0,0,0,0,0,0,11,
scooby_state_623580|0|0 11,0,0,0,0,0,0,0,0,0,0,0,0,0,0,11,
scooby_state_65d060|6|1 11,0,0,0,0,0,0,0,0,0,0,0,0,0,0,11,
scooby_state_65d150|44|1 11,0,0,0,0,0,0,0,0,0,0,0,0,0,0,11,
scooby_state_65d7c0|55|25 10,1,0,0,0,0,0,0,0,0,0,0,0,0,0,11,
scooby_state_65e720|62|25 11,0,0,0,0,0,0,0,0,0,0,0,0,0,0,11,
scooby_state_65d150|38|1 11,0,0,0,0,0,0,0,0,0,0,0,0,0,0,11,
scooby_state_65d150|42|1 11,0,0,0,0,0,0,0,0,0,0,0,0,0,0,11,
scooby_state_65ce80|38|1 11,0,0,0,0,0,0,0,0,0,0,0,0,0,0,11,
scooby_state_65ce80|46|1 11,0,0,0,0,0,0,0,0,0,0,0,0,0,0,11,
scooby_state_65ce80|58|1 11,0,0,0,0,0,0,0,0,0,0,0,0,0,0,11,
scooby_state_65d060|62|1 11,0,0,0,0,0,0,0,0,0,0,0,0,0,0,11,
scooby_state_65ce80|43|1 11,0,0,0,0,0,0,0,0,0,0,0,0,0,0,11,
scooby_state_65d150|37|1 11,0,0,0,0,0,0,0,0,0,0,0,0,0,0,11,
scooby_state_65ce80|42|1 11,0,0,0,0,0,0,0,0,0,0,0,0,0,0,11,
scooby_state_65ce80|40|1 11,0,0,0,0,0,0,0,0,0,0,0,0,0,0,11,
scooby_state_65cd70|56|1 11,0,0,0,0,0,0,0,0,0,0,0,0,0,0,11,
scooby_state_65d060|4|1 11,0,0,0,0,0,0,0,0,0,0,0,0,0,0,11,
scooby_state_a79ed0|33|0 10,1,0,0,0,0,0,0,0,0,0,0,0,0,0,11,
scooby_state_65d060|1|1 11,0,0,0,0,0,0,0,0,0,0,0,0,0,0,11,
scooby_state_65ce80|39|1 11,0,0,0,0,0,0,0,0,0,0,0,0,0,0,11,
scooby_state_65ce80|45|1 11,0,0,0,0,0,0,0,0,0,0,0,0,0,0,11,
scooby_state_65d7c0|49|25 9,2,0,0,0,0,0,0,0,0,0,0,0,0,0,11,
scooby_state_65e720|63|25 11,0,0,0,0,0,0,0,0,0,0,0,0,0,0,11,
scooby_state_65d150|39|1 11,0,0,0,0,0,0,0,0,0,0,0,0,0,0,11,
scooby_state_65cd70|51|1 11,0,0,0,0,0,0,0,0,0,0,0,0,0,0,11,
scooby_state_65d150|41|1 11,0,0,0,0,0,0,0,0,0,0,0,0,0,0,11,
scooby_state_65cd70|59|1 11,0,0,0,0,0,0,0,0,0,0,0,0,0,0,11,
scooby_state_65d150|43|1 11,0,0,0,0,0,0,0,0,0,0,0,0,0,0,11,
scooby_state_65d150|40|1 11,0,0,0,0,0,0,0,0,0,0,0,0,0,0,11,
scooby_state_65d150|45|1 11,0,0,0,0,0,0,0,0,0,0,0,0,0,0,11,
scooby_state_65d060|3|1 11,0,0,0,0,0,0,0,0,0,0,0,0,0,0,11,
scooby_state_65e720|4|-49 10,0,0,0,0,0,0,0,0,0,0,0,0,0,0,10,
scooby_state_65d150|35|1 10,0,0,0,0,0,0,0,0,0,0,0,0,0,0,10,
scooby_state_65d060|36|1 10,0,0,0,0,0,0,0,0,0,0,0,0,0,0,10,
scooby_state_65d060|57|1 10,0,0,0,0,0,0,0,0,0,0,0,0,0,0,10,
scooby_state_65e720|7|-49 10,0,0,0,0,0,0,0,0,0,0,0,0,0,0,10,
scooby_state_65e720|18|-24 10,0,0,0,0,0,0,0,0,0,0,0,0,0,0,10,
scooby_state_65d060|7|1 10,0,0,0,0,0,0,0,0,0,0,0,0,0,0,10,
scooby_state_65d060|43|1 10,0,0,0,0,0,0,0,0,0,0,0,0,0,0,10,
scooby_state_65d060|29|1 10,0,0,0,0,0,0,0,0,0,0,0,0,0,0,10,
scooby_state_65d060|40|1 10,0,0,0,0,0,0,0,0,0,0,0,0,0,0,10,
scooby_state_65e720|40|25 10,0,0,0,0,0,0,0,0,0,0,0,0,0,0,10,
scooby_state_65d7c0|30|25 10,0,0,0,0,0,0,0,0,0,0,0,0,0,0,10,
scooby_state_65d060|34|1 10,0,0,0,0,0,0,0,0,0,0,0,0,0,0,10,
scooby_state_65d7c0|41|25 10,0,0,0,0,0,0,0,0,0,0,0,0,0,0,10,
scooby_state_65d7c0|2|-49 10,0,0,0,0,0,0,0,0,0,0,0,0,0,0,10,
scooby_state_65d7c0|27|25 10,0,0,0,0,0,0,0,0,0,0,0,0,0,0,10,
scooby_state_65d150|21|1 10,0,0,0,0,0,0,0,0,0,0,0,0,0,0,10,
scooby_state_65e720|57|25 10,0,0,0,0,0,0,0,0,0,0,0,0,0,0,10,
scooby_state_65d060|31|1 10,0,0,0,0,0,0,0,0,0,0,0,0,0,0,10,
scooby_state_65ce80|3|1 10,0,0,0,0,0,0,0,0,0,0,0,0,0,0,10,
scooby_state_65d7c0|44|25 10,0,0,0,0,0,0,0,0,0,0,0,0,0,0,10,
scooby_state_65d060|9|1 10,0,0,0,0,0,0,0,0,0,0,0,0,0,0,10,
scooby_state_65d060|23|1 10,0,0,0,0,0,0,0,0,0,0,0,0,0,0,10,
scooby_state_65ce80|25|1 10,0,0,0,0,0,0,0,0,0,0,0,0,0,0,10,
scooby_state_65d060|12|1 10,0,0,0,0,0,0,0,0,0,0,0,0,0,0,10,
scooby_state_65d7c0|58|25 10,0,0,0,0,0,0,0,0,0,0,0,0,0,0,10,
scooby_state_65d7c0|8|-49 10,0,0,0,0,0,0,0,0,0,0,0,0,0,0,10,
scooby_state_65e720|43|25 10,0,0,0,0,0,0,0,0,0,0,0,0,0,0,10,
scooby_state_65d060|54|1 9,0,0,0,0,0,0,0,0,0,0,0,0,1,0,10,
scooby_state_65d060|53|1 10,0,0,0,0,0,0,0,0,0,0,0,0,0,0,10,
scooby_state_65d7c0|47|25 10,0,0,0,0,0,0,0,0,0,0,0,0,0,0,10,
scooby_state_65d060|18|1 10,0,0,0,0,0,0,0,0,0,0,0,0,0,0,10,
scooby_state_65d7c0|22|-24 10,0,0,0,0,0,0,0,0,0,0,0,0,0,0,10,
scooby_state_65e720|46|25 10,0,0,0,0,0,0,0,0,0,0,0,0,0,0,10,
scooby_state_65d060|20|1 10,0,0,0,0,0,0,0,0,0,0,0,0,0,0,10,
scooby_state_65d7c0|32|25 9,1,0,0,0,0,0,0,0,0,0,0,0,0,0,10,
scooby_state_65cd70|45|1 10,0,0,0,0,0,0,0,0,0,0,0,0,0,0,10,
scooby_state_65d150|23|1 10,0,0,0,0,0,0,0,0,0,0,0,0,0,0,10,
scooby_state_65d7c0|50|25 9,1,0,0,0,0,0,0,0,0,0,0,0,0,0,10,
scooby_state_65d7c0|13|-49 10,0,0,0,0,0,0,0,0,0,0,0,0,0,0,10,
scooby_state_65d7c0|10|-49 10,0,0,0,0,0,0,0,0,0,0,0,0,0,0,10,
scooby_state_65d7c0|60|25 9,1,0,0,0,0,0,0,0,0,0,0,0,0,0,10,
scooby_state_65d7c0|21|-24 10,0,0,0,0,0,0,0,0,0,0,0,0,0,0,10,
scooby_state_65cd70|9|1 10,0,0,0,0,0,0,0,0,0,0,0,0,0,0,10,
scooby_state_65d7c0|46|25 9,1,0,0,0,0,0,0,0,0,0,0,0,0,0,10,
scooby_state_65cd70|21|1 10,0,0,0,0,0,0,0,0,0,0,0,0,0,0,10,
scooby_state_65d150|47|1 10,0,0,0,0,0,0,0,0,0,0,0,0,0,0,10,
scooby_state_65d7c0|18|-24 10,0,0,0,0,0,0,0,0,0,0,0,0,0,0,10,
scooby_state_65d7c0|57|25 9,1,0,0,0,0,0,0,0,0,0,0,0,0,0,10,
scooby_state_65d7c0|1|-49 10,0,0,0,0,0,0,0,0,0,0,0,0,0,0,10,
scooby_state_65e720|60|25 10,0,0,0,0,0,0,0,0,0,0,0,0,0,0,10,
scooby_state_65d150|54|1 10,0,0,0,0,0,0,0,0,0,0,0,0,0,0,10,
scooby_state_65e720|23|-24 10,0,0,0,0,0,0,0,0,0,0,0,0,0,0,10,
scooby_state_65e720|48|25 10,0,0,0,0,0,0,0,0,0,0,0,0,0,0,10,
scooby_state_65e720|38|25 10,0,0,0,0,0,0,0,0,0,0,0,0,0,0,10,
scooby_state_65e720|47|25 10,0,0,0,0,0,0,0,0,0,0,0,0,0,0,10,
scooby_state_65cd70|50|1 10,0,0,0,0,0,0,0,0,0,0,0,0,0,0,10,
scooby_state_65e720|30|25 10,0,0,0,0,0,0,0,0,0,0,0,0,0,0,10,
scooby_state_65e720|55|25 10,0,0,0,0,0,0,0,0,0,0,0,0,0,0,10,
scooby_state_65e720|41|25 10,0,0,0,0,0,0,0,0,0,0,0,0,0,0,10,
scooby_state_65d7c0|26|25 9,1,0,0,0,0,0,0,0,0,0,0,0,0,0,10,
scooby_state_65ce80|28|1 10,0,0,0,0,0,0,0,0,0,0,0,0,0,0,10,
scooby_state_65e720|27|25 10,0,0,0,0,0,0,0,0,0,0,0,0,0,0,10,
scooby_state_65e720|58|25 10,0,0,0,0,0,0,0,0,0,0,0,0,0,0,10,
scooby_state_65d150|18|1 10,0,0,0,0,0,0,0,0,0,0,0,0,0,0,10,
scooby_state_65d7c0|38|25 9,1,0,0,0,0,0,0,0,0,0,0,0,0,0,10,
scooby_state_65d060|63|1 10,0,0,0,0,0,0,0,0,0,0,0,0,0,0,10,
scooby_state_65cd70|26|1 10,0,0,0,0,0,0,0,0,0,0,0,0,0,0,10,
scooby_state_65cd70|58|1 10,0,0,0,0,0,0,0,0,0,0,0,0,0,0,10,
scooby_state_65e720|35|25 10,0,0,0,0,0,0,0,0,0,0,0,0,0,0,10,
scooby_state_65d150|1|1 10,0,0,0,0,0,0,0,0,0,0,0,0,0,0,10,
scooby_state_65e720|6|-49 10,0,0,0,0,0,0,0,0,0,0,0,0,0,0,10,
scooby_state_65ce80|48|1 10,0,0,0,0,0,0,0,0,0,0,0,0,0,0,10,
scooby_state_65d150|55|1 10,0,0,0,0,0,0,0,0,0,0,0,0,0,0,10,
scooby_state_65e720|56|25 10,0,0,0,0,0,0,0,0,0,0,0,0,0,0,10,
scooby_state_65d150|7|1 10,0,0,0,0,0,0,0,0,0,0,0,0,0,0,10,
scooby_state_65d150|4|1 10,0,0,0,0,0,0,0,0,0,0,0,0,0,0,10,
scooby_state_65d150|3|1 10,0,0,0,0,0,0,0,0,0,0,0,0,0,0,10,
scooby_state_65d150|60|1 10,0,0,0,0,0,0,0,0,0,0,0,0,0,0,10,
scooby_state_65d150|59|1 10,0,0,0,0,0,0,0,0,0,0,0,0,0,0,10,
scooby_state_65d150|56|1 10,0,0,0,0,0,0,0,0,0,0,0,0,0,0,10,
scooby_state_65d7c0|56|25 9,1,0,0,0,0,0,0,0,0,0,0,0,0,0,10,
scooby_state_65e720|52|25 10,0,0,0,0,0,0,0,0,0,0,0,0,0,0,10,
scooby_state_65d150|8|1 10,0,0,0,0,0,0,0,0,0,0,0,0,0,0,10,
scooby_state_65e720|42|25 10,0,0,0,0,0,0,0,0,0,0,0,0,0,0,10,
scooby_state_65d150|49|1 10,0,0,0,0,0,0,0,0,0,0,0,0,0,0,10,
scooby_state_65d150|48|1 10,0,0,0,0,0,0,0,0,0,0,0,0,0,0,10,
scooby_state_65d060|61|1 10,0,0,0,0,0,0,0,0,0,0,0,0,0,0,10,
scooby_state_65e720|3|-49 10,0,0,0,0,0,0,0,0,0,0,0,0,0,0,10,
scooby_state_65e720|53|25 10,0,0,0,0,0,0,0,0,0,0,0,0,0,0,10,
scooby_state_65e720|25|25 10,0,0,0,0,0,0,0,0,0,0,0,0,0,0,10,
scooby_state_65e720|17|-24 10,0,0,0,0,0,0,0,0,0,0,0,0,0,0,10,
scooby_state_65d150|26|1 10,0,0,0,0,0,0,0,0,0,0,0,0,0,0,10,
scooby_state_65e720|9|-49 10,0,0,0,0,0,0,0,0,0,0,0,0,0,0,10,
scooby_state_65cd70|1|1 10,0,0,0,0,0,0,0,0,0,0,0,0,0,0,10,
scooby_state_65e720|59|25 9,0,0,0,0,1,0,0,0,0,0,0,0,0,0,10,
scooby_state_65d150|33|1 10,0,0,0,0,0,0,0,0,0,0,0,0,0,0,10,
scooby_state_65d150|32|1 10,0,0,0,0,0,0,0,0,0,0,0,0,0,0,10,
scooby_state_65d150|31|1 10,0,0,0,0,0,0,0,0,0,0,0,0,0,0,10,
scooby_state_65d150|29|1 10,0,0,0,0,0,0,0,0,0,0,0,0,0,0,10,
scooby_state_65e720|20|-24 10,0,0,0,0,0,0,0,0,0,0,0,0,0,0,10,
scooby_state_65d150|28|1 10,0,0,0,0,0,0,0,0,0,0,0,0,0,0,10,
scooby_state_65e720|50|25 10,0,0,0,0,0,0,0,0,0,0,0,0,0,0,10,
scooby_state_65d150|22|1 10,0,0,0,0,0,0,0,0,0,0,0,0,0,0,10,
scooby_state_65d150|19|1 10,0,0,0,0,0,0,0,0,0,0,0,0,0,0,10,
scooby_state_65d150|16|1 10,0,0,0,0,0,0,0,0,0,0,0,0,0,0,10,
scooby_state_65d150|14|1 10,0,0,0,0,0,0,0,0,0,0,0,0,0,0,10,
scooby_state_65e720|45|25 10,0,0,0,0,0,0,0,0,0,0,0,0,0,0,10,
scooby_state_65d150|13|1 10,0,0,0,0,0,0,0,0,0,0,0,0,0,0,10,
scooby_state_65d150|12|1 10,0,0,0,0,0,0,0,0,0,0,0,0,0,0,10,
scooby_state_65d150|10|1 10,0,0,0,0,0,0,0,0,0,0,0,0,0,0,10,
scooby_state_65e720|28|25 10,0,0,0,0,0,0,0,0,0,0,0,0,0,0,10,
scooby_state_65ce80|47|1 10,0,0,0,0,0,0,0,0,0,0,0,0,0,0,10,
scooby_state_65ce80|49|1 10,0,0,0,0,0,0,0,0,0,0,0,0,0,0,10,
scooby_state_65e720|11|-49 10,0,0,0,0,0,0,0,0,0,0,0,0,0,0,10,
scooby_state_65d150|24|1 10,0,0,0,0,0,0,0,0,0,0,0,0,0,0,10,
scooby_state_65cd70|39|1 10,0,0,0,0,0,0,0,0,0,0,0,0,0,0,10,
scooby_state_65d150|30|1 10,0,0,0,0,0,0,0,0,0,0,0,0,0,0,10,
scooby_state_65ce80|30|1 10,0,0,0,0,0,0,0,0,0,0,0,0,0,0,10,
scooby_state_65cd70|12|1 10,0,0,0,0,0,0,0,0,0,0,0,0,0,0,10,
scooby_state_65d060|32|1 10,0,0,0,0,0,0,0,0,0,0,0,0,0,0,10,
scooby_state_65ce80|61|1 9,0,0,0,0,0,0,0,0,1,0,0,0,0,0,10,
scooby_state_65ce80|55|1 10,0,0,0,0,0,0,0,0,0,0,0,0,0,0,10,
scooby_state_65e720|34|25 10,0,0,0,0,0,0,0,0,0,0,0,0,0,0,10,
scooby_state_65d7c0|35|25 9,1,0,0,0,0,0,0,0,0,0,0,0,0,0,10,
scooby_state_65ce80|6|1 10,0,0,0,0,0,0,0,0,0,0,0,0,0,0,10,
scooby_state_65d060|50|1 10,0,0,0,0,0,0,0,0,0,0,0,0,0,0,10,
scooby_state_65d060|42|1 10,0,0,0,0,0,0,0,0,0,0,0,0,0,0,10,
scooby_state_65cd70|7|1 10,0,0,0,0,0,0,0,0,0,0,0,0,0,0,10,
scooby_state_65ce80|10|1 10,0,0,0,0,0,0,0,0,0,0,0,0,0,0,10,
scooby_state_65d150|62|1 10,0,0,0,0,0,0,0,0,0,0,0,0,0,0,10,
scooby_state_65ce80|23|1 10,0,0,0,0,0,0,0,0,0,0,0,0,0,0,10,
scooby_state_65ce80|22|1 10,0,0,0,0,0,0,0,0,0,0,0,0,0,0,10,
scooby_state_65d150|36|1 10,0,0,0,0,0,0,0,0,0,0,0,0,0,0,10,
scooby_state_65cd70|55|1 10,0,0,0,0,0,0,0,0,0,0,0,0,0,0,10,
scooby_state_65d150|20|1 10,0,0,0,0,0,0,0,0,0,0,0,0,0,0,10,
scooby_state_65cd70|52|1 10,0,0,0,0,0,0,0,0,0,0,0,0,0,0,10,
scooby_state_65d060|59|1 10,0,0,0,0,0,0,0,0,0,0,0,0,0,0,10,
scooby_state_65cd70|48|1 10,0,0,0,0,0,0,0,0,0,0,0,0,0,0,10,
scooby_state_65e720|36|25 10,0,0,0,0,0,0,0,0,0,0,0,0,0,0,10,
scooby_state_65e720|29|25 10,0,0,0,0,0,0,0,0,0,0,0,0,0,0,10,
scooby_state_65cd70|40|1 10,0,0,0,0,0,0,0,0,0,0,0,0,0,0,10,
scooby_state_65cd70|37|1 10,0,0,0,0,0,0,0,0,0,0,0,0,0,0,10,
scooby_state_65d060|51|1 10,0,0,0,0,0,0,0,0,0,0,0,0,0,0,10,
scooby_state_65d060|11|1 10,0,0,0,0,0,0,0,0,0,0,0,0,0,0,10,
scooby_state_65d7c0|16|-24 10,0,0,0,0,0,0,0,0,0,0,0,0,0,0,10,
scooby_state_65d150|2|1 10,0,0,0,0,0,0,0,0,0,0,0,0,0,0,10,
scooby_state_65d060|48|1 10,0,0,0,0,0,0,0,0,0,0,0,0,0,0,10,
scooby_state_65d7c0|54|25 9,1,0,0,0,0,0,0,0,0,0,0,0,0,0,10,
scooby_state_65ce80|51|1 10,0,0,0,0,0,0,0,0,0,0,0,0,0,0,10,
scooby_state_65ce80|7|1 10,0,0,0,0,0,0,0,0,0,0,0,0,0,0,10,
scooby_state_65d150|5|1 10,0,0,0,0,0,0,0,0,0,0,0,0,0,0,10,
scooby_state_65d7c0|40|25 9,1,0,0,0,0,0,0,0,0,0,0,0,0,0,10,
scooby_state_65d7c0|53|25 9,1,0,0,0,0,0,0,0,0,0,0,0,0,0,10,
scooby_state_65e720|49|25 10,0,0,0,0,0,0,0,0,0,0,0,0,0,0,10,
scooby_state_65d150|27|1 10,0,0,0,0,0,0,0,0,0,0,0,0,0,0,10,
scooby_state_65ce80|5|1 10,0,0,0,0,0,0,0,0,0,0,0,0,0,0,10,
scooby_state_65e720|12|-49 10,0,0,0,0,0,0,0,0,0,0,0,0,0,0,10,
scooby_state_65d150|53|1 10,0,0,0,0,0,0,0,0,0,0,0,0,0,0,10,
scooby_state_65d7c0|7|-49 10,0,0,0,0,0,0,0,0,0,0,0,0,0,0,10,
scooby_state_65e720|44|25 10,0,0,0,0,0,0,0,0,0,0,0,0,0,0,10,
scooby_state_65d060|39|1 10,0,0,0,0,0,0,0,0,0,0,0,0,0,0,10,
scooby_state_65e720|37|25 10,0,0,0,0,0,0,0,0,0,0,0,0,0,0,10,
scooby_state_65d150|52|1 10,0,0,0,0,0,0,0,0,0,0,0,0,0,0,10,
scooby_state_65e720|51|25 10,0,0,0,0,0,0,0,0,0,0,0,0,0,0,10,
scooby_state_65d150|61|1 10,0,0,0,0,0,0,0,0,0,0,0,0,0,0,10,
scooby_state_65cd70|43|1 10,0,0,0,0,0,0,0,0,0,0,0,0,0,0,10,
scooby_state_65ce80|36|1 10,0,0,0,0,0,0,0,0,0,0,0,0,0,0,10,
scooby_state_65d060|26|1 10,0,0,0,0,0,0,0,0,0,0,0,0,0,0,10,
scooby_state_65d7c0|43|25 9,1,0,0,0,0,0,0,0,0,0,0,0,0,0,10,
scooby_state_65d060|14|1 10,0,0,0,0,0,0,0,0,0,0,0,0,0,0,10,
scooby_state_65e720|15|-24 10,0,0,0,0,0,0,0,0,0,0,0,0,0,0,10,
scooby_state_65ce80|8|1 10,0,0,0,0,0,0,0,0,0,0,0,0,0,0,10,
scooby_state_65d7c0|33|25 10,0,0,0,0,0,0,0,0,0,0,0,0,0,0,10,
scooby_state_65cd70|34|1 10,0,0,0,0,0,0,0,0,0,0,0,0,0,0,10,
scooby_state_65d060|17|1 10,0,0,0,0,0,0,0,0,0,0,0,0,0,0,10,
scooby_state_65d7c0|5|-49 10,0,0,0,0,0,0,0,0,0,0,0,0,0,0,10,
scooby_state_65d150|51|1 10,0,0,0,0,0,0,0,0,0,0,0,0,0,0,10,
scooby_state_65d150|15|1 10,0,0,0,0,0,0,0,0,0,0,0,0,0,0,10,
scooby_state_65d150|11|1 10,0,0,0,0,0,0,0,0,0,0,0,0,0,0,10,
scooby_state_65cd70|6|1 10,0,0,0,0,0,0,0,0,0,0,0,0,0,0,10,
scooby_state_65d150|34|1 10,0,0,0,0,0,0,0,0,0,0,0,0,0,0,10,
scooby_state_65cd70|28|1 10,0,0,0,0,0,0,0,0,0,0,0,0,0,0,10,
scooby_state_65e720|33|25 10,0,0,0,0,0,0,0,0,0,0,0,0,0,0,10,
scooby_state_65cd70|62|1 10,0,0,0,0,0,0,0,0,0,0,0,0,0,0,10,
scooby_state_65d060|56|1 10,0,0,0,0,0,0,0,0,0,0,0,0,0,0,10,
scooby_state_65d150|25|1 10,0,0,0,0,0,0,0,0,0,0,0,0,0,0,10,
scooby_state_65d060|28|1 10,0,0,0,0,0,0,0,0,0,0,0,0,0,0,10,
scooby_state_65cd70|42|1 10,0,0,0,0,0,0,0,0,0,0,0,0,0,0,10,
scooby_state_65d060|5|1 10,0,0,0,0,0,0,0,0,0,0,0,0,0,0,10,
scooby_state_65cd70|4|1 10,0,0,0,0,0,0,0,0,0,0,0,0,0,0,10,
scooby_state_65e720|39|25 10,0,0,0,0,0,0,0,0,0,0,0,0,0,0,10,
scooby_state_65d060|25|1 10,0,0,0,0,0,0,0,0,0,0,0,0,0,0,10,
scooby_state_65e720|0|-49 10,0,0,0,0,0,0,0,0,0,0,0,0,0,0,10,
scooby_state_65ce80|12|1 10,0,0,0,0,0,0,0,0,0,0,0,0,0,0,10,
scooby_state_65cd70|3|1 10,0,0,0,0,0,0,0,0,0,0,0,0,0,0,10,
scooby_state_65d150|6|1 10,0,0,0,0,0,0,0,0,0,0,0,0,0,0,10,
scooby_state_65d7c0|29|25 9,1,0,0,0,0,0,0,0,0,0,0,0,0,0,10,
scooby_state_65cd70|46|1 10,0,0,0,0,0,0,0,0,0,0,0,0,0,0,10,
scooby_state_65ce80|17|1 10,0,0,0,0,0,0,0,0,0,0,0,0,0,0,10,
scooby_state_65ce80|16|1 10,0,0,0,0,0,0,0,0,0,0,0,0,0,0,10,
scooby_state_65ce80|15|1 10,0,0,0,0,0,0,0,0,0,0,0,0,0,0,10,
scooby_state_65ce80|14|1 10,0,0,0,0,0,0,0,0,0,0,0,0,0,0,10,
scooby_state_65ce80|13|1 10,0,0,0,0,0,0,0,0,0,0,0,0,0,0,10,
scooby_state_65ce80|11|1 10,0,0,0,0,0,0,0,0,0,0,0,0,0,0,10,
scooby_state_65ce80|60|1 10,0,0,0,0,0,0,0,0,0,0,0,0,0,0,10,
scooby_state_65d7c0|24|-24 10,0,0,0,0,0,0,0,0,0,0,0,0,0,0,10,
scooby_state_65ce80|9|1 10,0,0,0,0,0,0,0,0,0,0,0,0,0,0,10,
scooby_state_65ce80|20|1 10,0,0,0,0,0,0,0,0,0,0,0,0,0,0,10,
scooby_state_65ce80|1|1 10,0,0,0,0,0,0,0,0,0,0,0,0,0,0,10,
scooby_state_65ce80|62|1 10,0,0,0,0,0,0,0,0,0,0,0,0,0,0,10,
scooby_state_65d7c0|4|-49 10,0,0,0,0,0,0,0,0,0,0,0,0,0,0,10,
scooby_state_65ce80|59|1 10,0,0,0,0,0,0,0,0,0,0,0,0,0,0,10,
scooby_state_65ce80|57|1 10,0,0,0,0,0,0,0,0,0,0,0,0,0,0,10,
scooby_state_65ce80|56|1 10,0,0,0,0,0,0,0,0,0,0,0,0,0,0,10,
scooby_state_65ce80|54|1 10,0,0,0,0,0,0,0,0,0,0,0,0,0,0,10,
scooby_state_65ce80|63|1 10,0,0,0,0,0,0,0,0,0,0,0,0,0,0,10,
scooby_state_65ce80|53|1 10,0,0,0,0,0,0,0,0,0,0,0,0,0,0,10,
scooby_state_65ce80|31|1 10,0,0,0,0,0,0,0,0,0,0,0,0,0,0,10,
scooby_state_65e720|54|25 10,0,0,0,0,0,0,0,0,0,0,0,0,0,0,10,
scooby_state_65e720|1|-49 10,0,0,0,0,0,0,0,0,0,0,0,0,0,0,10,
scooby_state_65e720|26|25 10,0,0,0,0,0,0,0,0,0,0,0,0,0,0,10,
scooby_state_65d060|37|1 10,0,0,0,0,0,0,0,0,0,0,0,0,0,0,10,
scooby_state_65d150|63|1 10,0,0,0,0,0,0,0,0,0,0,0,0,0,0,10,
scooby_state_65ce80|35|1 10,0,0,0,0,0,0,0,0,0,0,0,0,0,0,10,
scooby_state_65ce80|34|1 10,0,0,0,0,0,0,0,0,0,0,0,0,0,0,10,
scooby_state_65ce80|33|1 10,0,0,0,0,0,0,0,0,0,0,0,0,0,0,10,
scooby_state_65ce80|32|1 10,0,0,0,0,0,0,0,0,0,0,0,0,0,0,10,
scooby_state_65ce80|2|1 10,0,0,0,0,0,0,0,0,0,0,0,0,0,0,10,
scooby_state_65e720|32|25 10,0,0,0,0,0,0,0,0,0,0,0,0,0,0,10,
scooby_state_65ce80|29|1 10,0,0,0,0,0,0,0,0,0,0,0,0,0,0,10,
scooby_state_65ce80|27|1 10,0,0,0,0,0,0,0,0,0,0,0,0,0,0,10,
scooby_state_65ce80|18|1 10,0,0,0,0,0,0,0,0,0,0,0,0,0,0,10,
scooby_state_65ce80|26|1 10,0,0,0,0,0,0,0,0,0,0,0,0,0,0,10,
scooby_state_65ce80|24|1 10,0,0,0,0,0,0,0,0,0,0,0,0,0,0,10,
scooby_state_65d060|15|1 10,0,0,0,0,0,0,0,0,0,0,0,0,0,0,10,
scooby_state_65ce80|21|1 10,0,0,0,0,0,0,0,0,0,0,0,0,0,0,10,
scooby_state_65cd70|25|1 10,0,0,0,0,0,0,0,0,0,0,0,0,0,0,10,
scooby_state_65d150|57|1 10,0,0,0,0,0,0,0,0,0,0,0,0,0,0,10,
scooby_state_65d7c0|51|25 9,1,0,0,0,0,0,0,0,0,0,0,0,0,0,10,
scooby_state_65d060|45|1 10,0,0,0,0,0,0,0,0,0,0,0,0,0,0,10,
scooby_state_65d150|58|1 10,0,0,0,0,0,0,0,0,0,0,0,0,0,0,10,
scooby_state_65e720|31|25 10,0,0,0,0,0,0,0,0,0,0,0,0,0,0,10,
scooby_state_65d060|2|1 10,0,0,0,0,0,0,0,0,0,0,0,0,0,0,10,
scooby_state_65cd70|32|1 10,0,0,0,0,0,0,0,0,0,0,0,0,0,0,10,
scooby_state_65cd70|31|1 10,0,0,0,0,0,0,0,0,0,0,0,0,0,0,10,
scooby_state_65cd70|29|1 10,0,0,0,0,0,0,0,0,0,0,0,0,0,0,10,
scooby_state_65cd70|23|1 10,0,0,0,0,0,0,0,0,0,0,0,0,0,0,10,
scooby_state_65d150|9|1 10,0,0,0,0,0,0,0,0,0,0,0,0,0,0,10,
scooby_state_65cd70|20|1 10,0,0,0,0,0,0,0,0,0,0,0,0,0,0,10,
scooby_state_65cd70|18|1 10,0,0,0,0,0,0,0,0,0,0,0,0,0,0,10,
scooby_state_65cd70|17|1 10,0,0,0,0,0,0,0,0,0,0,0,0,0,0,10,
scooby_state_65cd70|14|1 10,0,0,0,0,0,0,0,0,0,0,0,0,0,0,10,
scooby_state_65cd70|15|1 10,0,0,0,0,0,0,0,0,0,0,0,0,0,0,10,
scooby_state_65d150|17|1 10,0,0,0,0,0,0,0,0,0,0,0,0,0,0,10,
scooby_state_65ce80|19|1 10,0,0,0,0,0,0,0,0,0,0,0,0,0,0,10,
scooby_state_65ce80|52|1 10,0,0,0,0,0,0,0,0,0,0,0,0,0,0,10,
scooby_state_65ce80|4|1 10,0,0,0,0,0,0,0,0,0,0,0,0,0,0,10,
scooby_state_65d7c0|19|-24 10,0,0,0,0,0,0,0,0,0,0,0,0,0,0,10,
scooby_state_65ce80|50|1 10,0,0,0,0,0,0,0,0,0,0,0,0,0,0,10,
scooby_state_65e720|14|-49 10,0,0,0,0,0,0,0,0,0,0,0,0,0,0,10,
scooby_state_65d150|50|1 10,0,0,0,0,0,0,0,0,0,0,0,0,0,0,10,
scooby_state_65d7c0|20|-24 9,0,0,0,0,0,0,0,0,0,0,0,0,0,0,9,
scooby_state_65cd70|27|1 9,0,0,0,0,0,0,0,0,0,0,0,0,0,0,9,
scooby_state_65d7c0|28|25 8,0,0,0,0,1,0,0,0,0,0,0,0,0,0,9,
scooby_state_65d7c0|17|-24 9,0,0,0,0,0,0,0,0,0,0,0,0,0,0,9,
scooby_state_65d7c0|31|25 9,0,0,0,0,0,0,0,0,0,0,0,0,0,0,9,
scooby_state_65d7c0|11|-49 9,0,0,0,0,0,0,0,0,0,0,0,0,0,0,9,
scooby_state_65d7c0|0|-49 9,0,0,0,0,0,0,0,0,0,0,0,0,0,0,9,
scooby_state_65d7c0|6|-49 9,0,0,0,0,0,0,0,0,0,0,0,0,0,0,9,
scooby_state_65d7c0|45|25 9,0,0,0,0,0,0,0,0,0,0,0,0,0,0,9,
scooby_state_65d060|35|1 9,0,0,0,0,0,0,0,0,0,0,0,0,0,0,9,
scooby_state_65e720|5|-49 9,0,0,0,0,0,0,0,0,0,0,0,0,0,0,9,
scooby_state_65cd70|33|1 9,0,0,0,0,0,0,0,0,0,0,0,0,0,0,9,
scooby_state_65d7c0|34|25 9,0,0,0,0,0,0,0,0,0,0,0,0,0,0,9,
scooby_state_65d7c0|48|25 9,0,0,0,0,0,0,0,0,0,0,0,0,0,0,9,
scooby_state_65d060|10|1 9,0,0,0,0,0,0,0,0,0,0,0,0,0,0,9,
scooby_state_65d7c0|23|-24 9,0,0,0,0,0,0,0,0,0,0,0,0,0,0,9,
scooby_state_65cd70|35|1 9,0,0,0,0,0,0,0,0,0,0,0,0,0,0,9,
scooby_state_65d7c0|61|25 9,0,0,0,0,0,0,0,0,0,0,0,0,0,0,9,
scooby_state_65d7c0|14|-49 9,0,0,0,0,0,0,0,0,0,0,0,0,0,0,9,
scooby_state_65d7c0|37|25 8,1,0,0,0,0,0,0,0,0,0,0,0,0,0,9,
scooby_state_65d7c0|12|-49 9,0,0,0,0,0,0,0,0,0,0,0,0,0,0,9,
scooby_state_65d060|8|1 9,0,0,0,0,0,0,0,0,0,0,0,0,0,0,9,
scooby_state_65d150|0|-63 9,0,0,0,0,0,0,0,0,0,0,0,0,0,0,9,
scooby_state_65d060|44|1 9,0,0,0,0,0,0,0,0,0,0,0,0,0,0,9,
scooby_state_65d7c0|3|-49 9,0,0,0,0,0,0,0,0,0,0,0,0,0,0,9,
scooby_state_65cd70|41|1 9,0,0,0,0,0,0,0,0,0,0,0,0,0,0,9,
scooby_state_65d060|21|1 9,0,0,0,0,0,0,0,0,0,0,0,0,0,0,9,
scooby_state_65d060|41|1 8,0,0,1,0,0,0,0,0,0,0,0,0,0,0,9,
scooby_state_65e720|10|-49 9,0,0,0,0,0,0,0,0,0,0,0,0,0,0,9,
scooby_state_65e720|19|-24 8,1,0,0,0,0,0,0,0,0,0,0,0,0,0,9,
scooby_state_65d7c0|9|-49 9,0,0,0,0,0,0,0,0,0,0,0,0,0,0,9,
scooby_state_65e720|8|-49 9,0,0,0,0,0,0,0,0,0,0,0,0,0,0,9,
scooby_state_65e720|13|-49 9,0,0,0,0,0,0,0,0,0,0,0,0,0,0,9,
scooby_state_65d060|22|1 9,0,0,0,0,0,0,0,0,0,0,0,0,0,0,9,
scooby_state_65d7c0|63|25 8,1,0,0,0,0,0,0,0,0,0,0,0,0,0,9,
scooby_state_65e720|16|-24 9,0,0,0,0,0,0,0,0,0,0,0,0,0,0,9,
scooby_state_65e720|22|-24 9,0,0,0,0,0,0,0,0,0,0,0,0,0,0,9,
scooby_state_65e720|2|-49 9,0,0,0,0,0,0,0,0,0,0,0,0,0,0,9,
scooby_state_65cd70|8|1 9,0,0,0,0,0,0,0,0,0,0,0,0,0,0,9,
scooby_state_65d060|46|1 9,0,0,0,0,0,0,0,0,0,0,0,0,0,0,9,
scooby_state_65e720|21|-24 9,0,0,0,0,0,0,0,0,0,0,0,0,0,0,9,
scooby_state_65ce80|0|0 9,0,0,0,0,0,0,0,0,0,0,0,0,0,0,9,
scooby_state_65cd70|30|1 9,0,0,0,0,0,0,0,0,0,0,0,0,0,0,9,
scooby_state_65cd70|61|1 9,0,0,0,0,0,0,0,0,0,0,0,0,0,0,9,
scooby_state_65cd70|36|1 9,0,0,0,0,0,0,0,0,0,0,0,0,0,0,9,
scooby_state_65cd70|38|1 9,0,0,0,0,0,0,0,0,0,0,0,0,0,0,9,
scooby_state_65cd70|19|1 9,0,0,0,0,0,0,0,0,0,0,0,0,0,0,9,
scooby_state_65cd70|2|1 9,0,0,0,0,0,0,0,0,0,0,0,0,0,0,9,
scooby_state_65cd70|5|1 9,0,0,0,0,0,0,0,0,0,0,0,0,0,0,9,
scooby_state_65d060|60|1 9,0,0,0,0,0,0,0,0,0,0,0,0,0,0,9,
scooby_state_65cd70|44|1 9,0,0,0,0,0,0,0,0,0,0,0,0,0,0,9,
scooby_state_65d060|47|1 9,0,0,0,0,0,0,0,0,0,0,0,0,0,0,9,
scooby_state_65cd70|63|1 9,0,0,0,0,0,0,0,0,0,0,0,0,0,0,9,
scooby_state_65cd70|47|1 9,0,0,0,0,0,0,0,0,0,0,0,0,0,0,9,
scooby_state_65cd70|13|1 9,0,0,0,0,0,0,0,0,0,0,0,0,0,0,9,
scooby_state_65d7c0|42|25 9,0,0,0,0,0,0,0,0,0,0,0,0,0,0,9,
scooby_state_65d7c0|15|-24 9,0,0,0,0,0,0,0,0,0,0,0,0,0,0,9,
scooby_state_a77e71|56|-1 5,3,1,0,0,0,0,0,0,0,0,0,0,0,0,9,
scooby_state_65d7c0|36|25 9,0,0,0,0,0,0,0,0,0,0,0,0,0,0,9,
scooby_state_65cd70|49|1 9,0,0,0,0,0,0,0,0,0,0,0,0,0,0,9,
scooby_state_65e720|24|-24 9,0,0,0,0,0,0,0,0,0,0,0,0,0,0,9,
scooby_state_65d060|27|1 9,0,0,0,0,0,0,0,0,0,0,0,0,0,0,9,
scooby_state_65cd70|10|1 9,0,0,0,0,0,0,0,0,0,0,0,0,0,0,9,
scooby_state_a79ef9|61|2 8,1,0,0,0,0,0,0,0,0,0,0,0,0,0,9,
scooby_state_65d7c0|59|25 9,0,0,0,0,0,0,0,0,0,0,0,0,0,0,9,
scooby_state_65d060|58|1 9,0,0,0,0,0,0,0,0,0,0,0,0,0,0,9,
scooby_state_65d060|24|1 9,0,0,0,0,0,0,0,0,0,0,0,0,0,0,9,
scooby_state_65d7c0|25|25 9,0,0,0,0,0,0,0,0,0,0,0,0,0,0,9,
scooby_state_65d060|55|1 9,0,0,0,0,0,0,0,0,0,0,0,0,0,0,9,
scooby_state_65d060|30|1 9,0,0,0,0,0,0,0,0,0,0,0,0,0,0,9,
scooby_state_65d060|33|1 9,0,0,0,0,0,0,0,0,0,0,0,0,0,0,9,
scooby_state_65d060|52|1 9,0,0,0,0,0,0,0,0,0,0,0,0,0,0,9,
scooby_state_65cd70|11|1 9,0,0,0,0,0,0,0,0,0,0,0,0,0,0,9,
scooby_state_65d7c0|39|25 9,0,0,0,0,0,0,0,0,0,0,0,0,0,0,9,
scooby_state_65d060|38|1 9,0,0,0,0,0,0,0,0,0,0,0,0,0,0,9,
scooby_state_65cd70|22|1 9,0,0,0,0,0,0,0,0,0,0,0,0,0,0,9,
scooby_state_65d060|49|1 9,0,0,0,0,0,0,0,0,0,0,0,0,0,0,9,
scooby_state_65d060|19|1 9,0,0,0,0,0,0,0,0,0,0,0,0,0,0,9,
scooby_state_65d060|13|1 9,0,0,0,0,0,0,0,0,0,0,0,0,0,0,9,
scooby_state_65d060|16|1 9,0,0,0,0,0,0,0,0,0,0,0,0,0,0,9,
scooby_state_65cd70|24|1 9,0,0,0,0,0,0,0,0,0,0,0,0,0,0,9,
scooby_state_65cd70|16|1 9,0,0,0,0,0,0,0,0,0,0,0,0,0,0,9,
scooby_state_65d7c0|62|25 8,0,0,0,0,0,0,0,0,0,0,0,0,0,0,8,
scooby_state_632d82|59|0 8,0,0,0,0,0,0,0,0,0,0,0,0,0,0,8,
scooby_state_a77d9e|57|1 8,0,0,0,0,0,0,0,0,0,0,0,0,0,0,8,
scooby_state_a306dc|21|2 7,0,0,0,0,0,0,0,0,0,0,0,0,0,0,7,
scooby_state_a7a530|52|-4 4,3,0,0,0,0,0,0,0,0,0,0,0,0,0,7,
scooby_state_a30536|50|0 7,0,0,0,0,0,0,0,0,0,0,0,0,0,0,7,
scooby_state_65fc20|59|1 6,0,0,0,0,0,0,0,0,0,0,0,0,0,0,6,
scooby_state_65fbf0|48|1 6,0,0,0,0,0,0,0,0,0,0,0,0,0,0,6,
scooby_state_65fbf0|50|1 6,0,0,0,0,0,0,0,0,0,0,0,0,0,0,6,
scooby_state_65fbf0|52|1 6,0,0,0,0,0,0,0,0,0,0,0,0,0,0,6,
scooby_state_a2e29c|50|6 2,0,2,2,0,0,0,0,0,0,0,0,0,0,0,6,
scooby_state_a3072c|20|-1 6,0,0,0,0,0,0,0,0,0,0,0,0,0,0,6,
scooby_state_65fc20|61|1 6,0,0,0,0,0,0,0,0,0,0,0,0,0,0,6,
scooby_state_a2e2ae|38|23 1,5,0,0,0,0,0,0,0,0,0,0,0,0,0,6,
scooby_state_a77fae|63|2 6,0,0,0,0,0,0,0,0,0,0,0,0,0,0,6,
scooby_state_65fbf0|51|1 6,0,0,0,0,0,0,0,0,0,0,0,0,0,0,6,
scooby_state_a2e29c|57|6 2,0,2,2,0,0,0,0,0,0,0,0,0,0,0,6,
scooby_state_a2e29c|51|6 2,0,2,2,0,0,0,0,0,0,0,0,0,0,0,6,
scooby_state_a31183|42|2 6,0,0,0,0,0,0,0,0,0,0,0,0,0,0,6,
scooby_state_9f9947|37|1 6,0,0,0,0,0,0,0,0,0,0,0,0,0,0,6,
scooby_state_65df06|62|0 6,0,0,0,0,0,0,0,0,0,0,0,0,0,0,6,
scooby_state_65fc20|62|1 6,0,0,0,0,0,0,0,0,0,0,0,0,0,0,6,
scooby_state_65fc20|60|1 6,0,0,0,0,0,0,0,0,0,0,0,0,0,0,6,
scooby_state_a2e2ae|10|-28 0,0,2,2,2,0,0,0,0,0,0,0,0,0,0,6,
scooby_state_a2e29c|56|6 2,0,2,2,0,0,0,0,0,0,0,0,0,0,0,6,
scooby_state_9f7cd0|48|1 5,1,0,0,0,0,0,0,0,0,0,0,0,0,0,6,
scooby_state_400510|2|0 6,0,0,0,0,0,0,0,0,0,0,0,0,0,0,6,
scooby_state_a2e208|1|1 6,0,0,0,0,0,0,0,0,0,0,0,0,0,0,6,
scooby_state_65fc20|58|1 6,0,0,0,0,0,0,0,0,0,0,0,0,0,0,6,
scooby_state_a2e1f0|40|3 6,0,0,0,0,0,0,0,0,0,0,0,0,0,0,6,
scooby_state_a3063f|4|-5 5,0,0,0,1,0,0,0,0,0,0,0,0,0,0,6,
scooby_state_65fbf0|49|1 6,0,0,0,0,0,0,0,0,0,0,0,0,0,0,6,
scooby_state_65d9f5|62|0 5,0,0,0,0,0,0,0,0,0,0,0,0,0,0,5,
scooby_state_65fc20|31|1 5,0,0,0,0,0,0,0,0,0,0,0,0,0,0,5,
scooby_state_65fc20|14|1 5,0,0,0,0,0,0,0,0,0,0,0,0,0,0,5,
scooby_state_65fbf0|17|1 5,0,0,0,0,0,0,0,0,0,0,0,0,0,0,5,
scooby_state_65fbf0|12|1 5,0,0,0,0,0,0,0,0,0,0,0,0,0,0,5,
scooby_state_6235a6|53|27 0,5,0,0,0,0,0,0,0,0,0,0,0,0,0,5,
scooby_state_65fbf0|11|1 5,0,0,0,0,0,0,0,0,0,0,0,0,0,0,5,
scooby_state_65fbf0|22|1 5,0,0,0,0,0,0,0,0,0,0,0,0,0,0,5,
scooby_state_65fbf0|10|1 5,0,0,0,0,0,0,0,0,0,0,0,0,0,0,5,
scooby_state_65fc20|15|1 5,0,0,0,0,0,0,0,0,0,0,0,0,0,0,5,
scooby_state_65fbf0|47|1 5,0,0,0,0,0,0,0,0,0,0,0,0,0,0,5,
scooby_state_65fc20|46|1 5,0,0,0,0,0,0,0,0,0,0,0,0,0,0,5,
scooby_state_65fc20|13|1 5,0,0,0,0,0,0,0,0,0,0,0,0,0,0,5,
scooby_state_65fc20|12|1 5,0,0,0,0,0,0,0,0,0,0,0,0,0,0,5,
scooby_state_a79eb9|59|-4 5,0,0,0,0,0,0,0,0,0,0,0,0,0,0,5,
scooby_state_65fc20|9|1 5,0,0,0,0,0,0,0,0,0,0,0,0,0,0,5,
scooby_state_65fc20|22|1 5,0,0,0,0,0,0,0,0,0,0,0,0,0,0,5,
scooby_state_65fc20|25|1 5,0,0,0,0,0,0,0,0,0,0,0,0,0,0,5,
scooby_state_65fc20|24|1 5,0,0,0,0,0,0,0,0,0,0,0,0,0,0,5,
scooby_state_65fc20|23|1 5,0,0,0,0,0,0,0,0,0,0,0,0,0,0,5,
scooby_state_65fbf0|55|1 5,0,0,0,0,0,0,0,0,0,0,0,0,0,0,5,
scooby_state_65fc20|52|1 5,0,0,0,0,0,0,0,0,0,0,0,0,0,0,5,
scooby_state_65fc20|49|1 5,0,0,0,0,0,0,0,0,0,0,0,0,0,0,5,
scooby_state_6235a0|24|-26 5,0,0,0,0,0,0,0,0,0,0,0,0,0,0,5,
scooby_state_a2e2ae|21|9 5,0,0,0,0,0,0,0,0,0,0,0,0,0,0,5,
scooby_state_65fc20|27|1 5,0,0,0,0,0,0,0,0,0,0,0,0,0,0,5,
scooby_state_65fc20|20|1 5,0,0,0,0,0,0,0,0,0,0,0,0,0,0,5,
scooby_state_65fbf0|38|1 5,0,0,0,0,0,0,0,0,0,0,0,0,0,0,5,
scooby_state_65fbf0|5|1 5,0,0,0,0,0,0,0,0,0,0,0,0,0,0,5,
scooby_state_65fbf0|25|1 5,0,0,0,0,0,0,0,0,0,0,0,0,0,0,5,
scooby_state_65fc20|47|1 5,0,0,0,0,0,0,0,0,0,0,0,0,0,0,5,
scooby_state_65fbf0|61|1 5,0,0,0,0,0,0,0,0,0,0,0,0,0,0,5,
scooby_state_65fbf0|24|1 5,0,0,0,0,0,0,0,0,0,0,0,0,0,0,5,
scooby_state_65fc20|37|1 5,0,0,0,0,0,0,0,0,0,0,0,0,0,0,5,
scooby_state_65fbf0|56|1 5,0,0,0,0,0,0,0,0,0,0,0,0,0,0,5,
scooby_state_a2e2ae|35|-12 5,0,0,0,0,0,0,0,0,0,0,0,0,0,0,5,
scooby_state_65fbf0|63|1 5,0,0,0,0,0,0,0,0,0,0,0,0,0,0,5,
scooby_state_65fbf0|59|1 5,0,0,0,0,0,0,0,0,0,0,0,0,0,0,5,
scooby_state_65fbf0|58|1 5,0,0,0,0,0,0,0,0,0,0,0,0,0,0,5,
scooby_state_a310d4|28|-1 5,0,0,0,0,0,0,0,0,0,0,0,0,0,0,5,
scooby_state_a768eb|57|5 5,0,0,0,0,0,0,0,0,0,0,0,0,0,0,5,
scooby_state_a76d39|54|0 5,0,0,0,0,0,0,0,0,0,0,0,0,0,0,5,
scooby_state_65fbf0|14|1 5,0,0,0,0,0,0,0,0,0,0,0,0,0,0,5,
scooby_state_65fbf0|35|1 5,0,0,0,0,0,0,0,0,0,0,0,0,0,0,5,
scooby_state_a2e2ae|47|-8 5,0,0,0,0,0,0,0,0,0,0,0,0,0,0,5,
scooby_state_65fbf0|16|1 5,0,0,0,0,0,0,0,0,0,0,0,0,0,0,5,
scooby_state_65fbf0|36|1 5,0,0,0,0,0,0,0,0,0,0,0,0,0,0,5,
scooby_state_65fbf0|15|1 5,0,0,0,0,0,0,0,0,0,0,0,0,0,0,5,
scooby_state_6235a0|26|-26 5,0,0,0,0,0,0,0,0,0,0,0,0,0,0,5,
scooby_state_65efff|31|0 5,0,0,0,0,0,0,0,0,0,0,0,0,0,0,5,
scooby_state_a31152|9|1 4,1,0,0,0,0,0,0,0,0,0,0,0,0,0,5,
scooby_state_65fbf0|28|1 5,0,0,0,0,0,0,0,0,0,0,0,0,0,0,5,
scooby_state_623409|37|0 0,5,0,0,0,0,0,0,0,0,0,0,0,0,0,5,
scooby_state_65fc20|8|1 5,0,0,0,0,0,0,0,0,0,0,0,0,0,0,5,
scooby_state_6235a6|50|1 5,0,0,0,0,0,0,0,0,0,0,0,0,0,0,5,
scooby_state_65fbf0|40|1 5,0,0,0,0,0,0,0,0,0,0,0,0,0,0,5,
scooby_state_65fc20|32|1 5,0,0,0,0,0,0,0,0,0,0,0,0,0,0,5,
scooby_state_65fc20|7|1 5,0,0,0,0,0,0,0,0,0,0,0,0,0,0,5,
scooby_state_65fc20|34|1 5,0,0,0,0,0,0,0,0,0,0,0,0,0,0,5,
scooby_state_65fc20|35|1 5,0,0,0,0,0,0,0,0,0,0,0,0,0,0,5,
scooby_state_6235a0|27|-26 5,0,0,0,0,0,0,0,0,0,0,0,0,0,0,5,
scooby_state_a31115|4|-5 5,0,0,0,0,0,0,0,0,0,0,0,0,0,0,5,
scooby_state_65fc20|26|1 5,0,0,0,0,0,0,0,0,0,0,0,0,0,0,5,
scooby_state_65fbf0|4|1 5,0,0,0,0,0,0,0,0,0,0,0,0,0,0,5,
scooby_state_a782e0|62|-1 4,1,0,0,0,0,0,0,0,0,0,0,0,0,0,5,
scooby_state_a2e2ae|59|20 5,0,0,0,0,0,0,0,0,0,0,0,0,0,0,5,
scooby_state_65fbf0|39|1 5,0,0,0,0,0,0,0,0,0,0,0,0,0,0,5,
scooby_state_a31152|60|1 4,1,0,0,0,0,0,0,0,0,0,0,0,0,0,5,
scooby_state_65fc20|36|1 5,0,0,0,0,0,0,0,0,0,0,0,0,0,0,5,
scooby_state_65fbf0|41|1 5,0,0,0,0,0,0,0,0,0,0,0,0,0,0,5,
scooby_state_a31115|53|49 5,0,0,0,0,0,0,0,0,0,0,0,0,0,0,5,
scooby_state_a31115|5|-20 3,0,1,1,0,0,0,0,0,0,0,0,0,0,0,5,
scooby_state_6235a6|49|26 5,0,0,0,0,0,0,0,0,0,0,0,0,0,0,5,
scooby_state_65df06|62|13 5,0,0,0,0,0,0,0,0,0,0,0,0,0,0,5,
scooby_state_6235aa|24|0 5,0,0,0,0,0,0,0,0,0,0,0,0,0,0,5,
scooby_state_6235a0|25|-26 5,0,0,0,0,0,0,0,0,0,0,0,0,0,0,5,
scooby_state_621080|2|1 5,0,0,0,0,0,0,0,0,0,0,0,0,0,0,5,
scooby_state_65fbf0|54|1 5,0,0,0,0,0,0,0,0,0,0,0,0,0,0,5,
scooby_state_6233b8|61|1 5,0,0,0,0,0,0,0,0,0,0,0,0,0,0,5,
scooby_state_65fc20|48|1 5,0,0,0,0,0,0,0,0,0,0,0,0,0,0,5,
scooby_state_65fbf0|37|1 5,0,0,0,0,0,0,0,0,0,0,0,0,0,0,5,
scooby_state_a31115|58|27 5,0,0,0,0,0,0,0,0,0,0,0,0,0,0,5,
scooby_state_a31115|8|-52 5,0,0,0,0,0,0,0,0,0,0,0,0,0,0,5,
scooby_state_65fbf0|57|1 5,0,0,0,0,0,0,0,0,0,0,0,0,0,0,5,
scooby_state_a31115|25|-34 0,5,0,0,0,0,0,0,0,0,0,0,0,0,0,5,
scooby_state_65fc20|63|1 5,0,0,0,0,0,0,0,0,0,0,0,0,0,0,5,
scooby_state_a31115|6|5 5,0,0,0,0,0,0,0,0,0,0,0,0,0,0,5,
scooby_state_65fc20|6|1 5,0,0,0,0,0,0,0,0,0,0,0,0,0,0,5,
scooby_state_65fbf0|46|1 5,0,0,0,0,0,0,0,0,0,0,0,0,0,0,5,
scooby_state_a2e2ae|46|-6 5,0,0,0,0,0,0,0,0,0,0,0,0,0,0,5,
scooby_state_65fc20|33|1 5,0,0,0,0,0,0,0,0,0,0,0,0,0,0,5,
scooby_state_6235a6|54|27 0,5,0,0,0,0,0,0,0,0,0,0,0,0,0,5,
scooby_state_a2e2ae|30|-16 5,0,0,0,0,0,0,0,0,0,0,0,0,0,0,5,
scooby_state_65fbf0|23|1 5,0,0,0,0,0,0,0,0,0,0,0,0,0,0,5,
scooby_state_65fbf0|60|1 5,0,0,0,0,0,0,0,0,0,0,0,0,0,0,5,
scooby_state_65fbf0|53|1 5,0,0,0,0,0,0,0,0,0,0,0,0,0,0,5,
scooby_state_9f99a5|0|0 2,3,0,0,0,0,0,0,0,0,0,0,0,0,0,5,
scooby_state_a77d9e|57|0 5,0,0,0,0,0,0,0,0,0,0,0,0,0,0,5,
scooby_state_623548|10|0 5,0,0,0,0,0,0,0,0,0,0,0,0,0,0,5,
scooby_state_65fbf0|32|1 5,0,0,0,0,0,0,0,0,0,0,0,0,0,0,5,
scooby_state_a308bb|38|0 5,0,0,0,0,0,0,0,0,0,0,0,0,0,0,5,
scooby_state_65fc20|10|1 5,0,0,0,0,0,0,0,0,0,0,0,0,0,0,5,
scooby_state_a2e2ae|39|-11 5,0,0,0,0,0,0,0,0,0,0,0,0,0,0,5,
scooby_state_65fc20|45|1 5,0,0,0,0,0,0,0,0,0,0,0,0,0,0,5,
scooby_state_a3063f|9|-11 5,0,0,0,0,0,0,0,0,0,0,0,0,0,0,5,
scooby_state_65fbf0|27|1 5,0,0,0,0,0,0,0,0,0,0,0,0,0,0,5,
scooby_state_a2e29c|19|2 5,0,0,0,0,0,0,0,0,0,0,0,0,0,0,5,
scooby_state_a31177|48|2 5,0,0,0,0,0,0,0,0,0,0,0,0,0,0,5,
scooby_state_65fc20|57|1 5,0,0,0,0,0,0,0,0,0,0,0,0,0,0,5,
scooby_state_65fbf0|62|1 5,0,0,0,0,0,0,0,0,0,0,0,0,0,0,5,
scooby_state_a8dbf0|47|0 5,0,0,0,0,0,0,0,0,0,0,0,0,0,0,5,
scooby_state_65fc20|56|1 5,0,0,0,0,0,0,0,0,0,0,0,0,0,0,5,
scooby_state_6235a6|51|27 0,5,0,0,0,0,0,0,0,0,0,0,0,0,0,5,
scooby_state_65fbf0|31|1 5,0,0,0,0,0,0,0,0,0,0,0,0,0,0,5,
scooby_state_65fc20|50|1 5,0,0,0,0,0,0,0,0,0,0,0,0,0,0,5,
scooby_state_65fc20|21|1 5,0,0,0,0,0,0,0,0,0,0,0,0,0,0,5,
scooby_state_9f9910|49|1 5,0,0,0,0,0,0,0,0,0,0,0,0,0,0,5,
scooby_state_a8dc70|49|2 5,0,0,0,0,0,0,0,0,0,0,0,0,0,0,5,
scooby_state_62339e|60|-2 5,0,0,0,0,0,0,0,0,0,0,0,0,0,0,5,
scooby_state_a31152|59|1 4,1,0,0,0,0,0,0,0,0,0,0,0,0,0,5,
scooby_state_65fbf0|42|1 5,0,0,0,0,0,0,0,0,0,0,0,0,0,0,5,
scooby_state_6235a6|52|27 0,5,0,0,0,0,0,0,0,0,0,0,0,0,0,5,
scooby_state_65fc20|51|1 5,0,0,0,0,0,0,0,0,0,0,0,0,0,0,5,
scooby_state_65fbf0|21|1 5,0,0,0,0,0,0,0,0,0,0,0,0,0,0,5,
scooby_state_65fc20|11|1 5,0,0,0,0,0,0,0,0,0,0,0,0,0,0,5,
scooby_state_65fbf0|26|1 5,0,0,0,0,0,0,0,0,0,0,0,0,0,0,5,
scooby_state_a76a38|56|-1 5,0,0,0,0,0,0,0,0,0,0,0,0,0,0,5,
scooby_state_a31075|6|-2 5,0,0,0,0,0,0,0,0,0,0,0,0,0,0,5,
scooby_state_65fbf0|13|1 5,0,0,0,0,0,0,0,0,0,0,0,0,0,0,5,
scooby_state_621080|28|1 4,0,0,0,0,0,0,0,0,0,0,0,0,0,0,4,
scooby_state_a39305|8|-34 0,4,0,0,0,0,0,0,0,0,0,0,0,0,0,4,
scooby_state_960b09|41|0 4,0,0,0,0,0,0,0,0,0,0,0,0,0,0,4,
scooby_state_658570|58|0 2,2,0,0,0,0,0,0,0,0,0,0,0,0,0,4,
scooby_state_65fbf0|29|1 4,0,0,0,0,0,0,0,0,0,0,0,0,0,0,4,
scooby_state_9f9900|36|1 1,3,0,0,0,0,0,0,0,0,0,0,0,0,0,4,
scooby_state_65c94f|30|-33 4,0,0,0,0,0,0,0,0,0,0,0,0,0,0,4,
scooby_state_621080|36|1 4,0,0,0,0,0,0,0,0,0,0,0,0,0,0,4,
scooby_state_621080|61|1 4,0,0,0,0,0,0,0,0,0,0,0,0,0,0,4,
scooby_state_a2e284|10|1 4,0,0,0,0,0,0,0,0,0,0,0,0,0,0,4,
scooby_state_621080|47|1 4,0,0,0,0,0,0,0,0,0,0,0,0,0,0,4,
scooby_state_65fbf0|43|1 4,0,0,0,0,0,0,0,0,0,0,0,0,0,0,4,
scooby_state_621080|57|1 4,0,0,0,0,0,0,0,0,0,0,0,0,0,0,4,
scooby_state_658440|26|-25 2,2,0,0,0,0,0,0,0,0,0,0,0,0,0,4,
scooby_state_620a40|5|1 4,0,0,0,0,0,0,0,0,0,0,0,0,0,0,4,
scooby_state_621080|26|1 4,0,0,0,0,0,0,0,0,0,0,0,0,0,0,4,
scooby_state_621080|34|1 4,0,0,0,0,0,0,0,0,0,0,0,0,0,0,4,
scooby_state_620a40|34|1 4,0,0,0,0,0,0,0,0,0,0,0,0,0,0,4,
scooby_state_65c910|0|-35 0,4,0,0,0,0,0,0,0,0,0,0,0,0,0,4,
scooby_state_621080|7|1 4,0,0,0,0,0,0,0,0,0,0,0,0,0,0,4,
scooby_state_621080|1|1 4,0,0,0,0,0,0,0,0,0,0,0,0,0,0,4,
scooby_state_620a40|51|1 4,0,0,0,0,0,0,0,0,0,0,0,0,0,0,4,
scooby_state_9f99a5|27|3 1,2,1,0,0,0,0,0,0,0,0,0,0,0,0,4,
scooby_state_a76a01|61|-1 4,0,0,0,0,0,0,0,0,0,0,0,0,0,0,4,
scooby_state_621080|62|1 4,0,0,0,0,0,0,0,0,0,0,0,0,0,0,4,
scooby_state_621080|37|1 4,0,0,0,0,0,0,0,0,0,0,0,0,0,0,4,
scooby_state_621080|4|1 4,0,0,0,0,0,0,0,0,0,0,0,0,0,0,4,
scooby_state_a4448e|18|-34 4,0,0,0,0,0,0,0,0,0,0,0,0,0,0,4,
scooby_state_621080|13|1 4,0,0,0,0,0,0,0,0,0,0,0,0,0,0,4,
scooby_state_a3063f|34|0 4,0,0,0,0,0,0,0,0,0,0,0,0,0,0,4,
scooby_state_a31115|44|0 4,0,0,0,0,0,0,0,0,0,0,0,0,0,0,4,
scooby_state_621080|30|1 4,0,0,0,0,0,0,0,0,0,0,0,0,0,0,4,
scooby_state_65c94f|0|-26 4,0,0,0,0,0,0,0,0,0,0,0,0,0,0,4,
scooby_state_a2e2ae|19|-5 1,3,0,0,0,0,0,0,0,0,0,0,0,0,0,4,
scooby_state_658570|33|-25 0,2,2,0,0,0,0,0,0,0,0,0,0,0,0,4,
scooby_state_621080|19|1 4,0,0,0,0,0,0,0,0,0,0,0,0,0,0,4,
scooby_state_621080|17|1 4,0,0,0,0,0,0,0,0,0,0,0,0,0,0,4,
scooby_state_929534|20|1 4,0,0,0,0,0,0,0,0,0,0,0,0,0,0,4,
scooby_state_a38904|36|1 4,0,0,0,0,0,0,0,0,0,0,0,0,0,0,4,
scooby_state_621080|14|1 4,0,0,0,0,0,0,0,0,0,0,0,0,0,0,4,
scooby_state_926260|55|1 4,0,0,0,0,0,0,0,0,0,0,0,0,0,0,4,
scooby_state_65d9f5|62|2 4,0,0,0,0,0,0,0,0,0,0,0,0,0,0,4,
scooby_state_a8dcec|13|1 4,0,0,0,0,0,0,0,0,0,0,0,0,0,0,4,
scooby_state_9f99a5|52|3 1,2,1,0,0,0,0,0,0,0,0,0,0,0,0,4,
scooby_state_621080|18|1 4,0,0,0,0,0,0,0,0,0,0,0,0,0,0,4,
scooby_state_65fc20|28|1 4,0,0,0,0,0,0,0,0,0,0,0,0,0,0,4,
scooby_state_927f4c|31|0 4,0,0,0,0,0,0,0,0,0,0,0,0,0,0,4,
scooby_state_621080|45|1 4,0,0,0,0,0,0,0,0,0,0,0,0,0,0,4,
scooby_state_621080|27|1 4,0,0,0,0,0,0,0,0,0,0,0,0,0,0,4,
scooby_state_8b7d43|53|1 4,0,0,0,0,0,0,0,0,0,0,0,0,0,0,4,
scooby_state_620a40|50|1 4,0,0,0,0,0,0,0,0,0,0,0,0,0,0,4,
scooby_state_a2e29c|58|6 1,0,1,2,0,0,0,0,0,0,0,0,0,0,0,4,
scooby_state_621080|43|1 4,0,0,0,0,0,0,0,0,0,0,0,0,0,0,4,
scooby_state_9f99c4|39|1 4,0,0,0,0,0,0,0,0,0,0,0,0,0,0,4,
scooby_state_620a40|13|1 4,0,0,0,0,0,0,0,0,0,0,0,0,0,0,4,
scooby_state_658570|5|-25 0,2,2,0,0,0,0,0,0,0,0,0,0,0,0,4,
scooby_state_65fc20|38|1 4,0,0,0,0,0,0,0,0,0,0,0,0,0,0,4,
scooby_state_926260|57|1 4,0,0,0,0,0,0,0,0,0,0,0,0,0,0,4,
scooby_state_8b8000|42|4 0,4,0,0,0,0,0,0,0,0,0,0,0,0,0,4,
scooby_state_621080|29|1 4,0,0,0,0,0,0,0,0,0,0,0,0,0,0,4,
scooby_state_9f99a5|29|2 2,2,0,0,0,0,0,0,0,0,0,0,0,0,0,4,
scooby_state_65fbf0|33|1 4,0,0,0,0,0,0,0,0,0,0,0,0,0,0,4,
scooby_state_a76272|9|-3 4,0,0,0,0,0,0,0,0,0,0,0,0,0,0,4,
scooby_state_9f98c9|39|2 4,0,0,0,0,0,0,0,0,0,0,0,0,0,0,4,
scooby_state_a8dcec|19|1 4,0,0,0,0,0,0,0,0,0,0,0,0,0,0,4,
scooby_state_a78606|24|1 4,0,0,0,0,0,0,0,0,0,0,0,0,0,0,4,
scooby_state_620a40|32|1 4,0,0,0,0,0,0,0,0,0,0,0,0,0,0,4,
scooby_state_a3063f|57|36 1,3,0,0,0,0,0,0,0,0,0,0,0,0,0,4,
scooby_state_a392cb|11|11 4,0,0,0,0,0,0,0,0,0,0,0,0,0,0,4,
scooby_state_621080|44|1 4,0,0,0,0,0,0,0,0,0,0,0,0,0,0,4,
scooby_state_a2e2ae|49|-10 4,0,0,0,0,0,0,0,0,0,0,0,0,0,0,4,
scooby_state_a2e29c|55|-5 4,0,0,0,0,0,0,0,0,0,0,0,0,0,0,4,
scooby_state_621080|23|1 4,0,0,0,0,0,0,0,0,0,0,0,0,0,0,4,
scooby_state_a2e2ae|41|-7 3,0,1,0,0,0,0,0,0,0,0,0,0,0,0,4,
scooby_state_926260|14|-24 4,0,0,0,0,0,0,0,0,0,0,0,0,0,0,4,
scooby_state_a31075|49|-3 4,0,0,0,0,0,0,0,0,0,0,0,0,0,0,4,
scooby_state_8b7fe5|38|-8 4,0,0,0,0,0,0,0,0,0,0,0,0,0,0,4,
scooby_state_8b7f5a|46|-10 4,0,0,0,0,0,0,0,0,0,0,0,0,0,0,4,
scooby_state_621080|24|1 4,0,0,0,0,0,0,0,0,0,0,0,0,0,0,4,
scooby_state_8b7fe5|37|-8 4,0,0,0,0,0,0,0,0,0,0,0,0,0,0,4,
scooby_state_8b8000|40|4 0,4,0,0,0,0,0,0,0,0,0,0,0,0,0,4,
scooby_state_8b7fe5|36|-8 4,0,0,0,0,0,0,0,0,0,0,0,0,0,0,4,
scooby_state_621080|53|1 4,0,0,0,0,0,0,0,0,0,0,0,0,0,0,4,
scooby_state_8b8000|39|4 0,4,0,0,0,0,0,0,0,0,0,0,0,0,0,4,
scooby_state_8b7f50|53|43 4,0,0,0,0,0,0,0,0,0,0,0,0,0,0,4,
scooby_state_621080|55|1 4,0,0,0,0,0,0,0,0,0,0,0,0,0,0,4,
scooby_state_620a40|22|1 4,0,0,0,0,0,0,0,0,0,0,0,0,0,0,4,
scooby_state_621080|52|1 4,0,0,0,0,0,0,0,0,0,0,0,0,0,0,4,
scooby_state_8b7ec3|59|1 4,0,0,0,0,0,0,0,0,0,0,0,0,0,0,4,
scooby_state_8b7e8a|62|1 4,0,0,0,0,0,0,0,0,0,0,0,0,0,0,4,
scooby_state_a31075|46|4 4,0,0,0,0,0,0,0,0,0,0,0,0,0,0,4,
scooby_state_a31115|53|11 4,0,0,0,0,0,0,0,0,0,0,0,0,0,0,4,
scooby_state_9295c0|23|1 4,0,0,0,0,0,0,0,0,0,0,0,0,0,0,4,
scooby_state_9f99a5|19|2 2,2,0,0,0,0,0,0,0,0,0,0,0,0,0,4,
scooby_state_652c10|48|1 4,0,0,0,0,0,0,0,0,0,0,0,0,0,0,4,
scooby_state_652881|34|1 4,0,0,0,0,0,0,0,0,0,0,0,0,0,0,4,
scooby_state_658570|13|-25 0,2,2,0,0,0,0,0,0,0,0,0,0,0,0,4,
scooby_state_926260|61|1 4,0,0,0,0,0,0,0,0,0,0,0,0,0,0,4,
scooby_state_960d03|52|1 4,0,0,0,0,0,0,0,0,0,0,0,0,0,0,4,
scooby_state_a8dcec|16|1 4,0,0,0,0,0,0,0,0,0,0,0,0,0,0,4,
scooby_state_a243f8|15|6 4,0,0,0,0,0,0,0,0,0,0,0,0,0,0,4,
scooby_state_a310d4|18|-1 4,0,0,0,0,0,0,0,0,0,0,0,0,0,0,4,
scooby_state_a31115|19|-34 0,4,0,0,0,0,0,0,0,0,0,0,0,0,0,4,
scooby_state_621080|54|1 4,0,0,0,0,0,0,0,0,0,0,0,0,0,0,4,
scooby_state_654941|37|1 0,4,0,0,0,0,0,0,0,0,0,0,0,0,0,4,
scooby_state_a785d0|23|1 4,0,0,0,0,0,0,0,0,0,0,0,0,0,0,4,
scooby_state_8b7e48|52|0 4,0,0,0,0,0,0,0,0,0,0,0,0,0,0,4,
scooby_state_654541|21|1 0,4,0,0,0,0,0,0,0,0,0,0,0,0,0,4,
scooby_state_654503|20|1 4,0,0,0,0,0,0,0,0,0,0,0,0,0,0,4,
scooby_state_928b44|45|1 4,0,0,0,0,0,0,0,0,0,0,0,0,0,0,4,
scooby_state_6525d6|23|1 4,0,0,0,0,0,0,0,0,0,0,0,0,0,0,4,
scooby_state_652582|22|1 4,0,0,0,0,0,0,0,0,0,0,0,0,0,0,4,
scooby_state_652541|21|1 4,0,0,0,0,0,0,0,0,0,0,0,0,0,0,4,
scooby_state_652502|20|1 1,3,0,0,0,0,0,0,0,0,0,0,0,0,0,4,
scooby_state_652482|18|1 4,0,0,0,0,0,0,0,0,0,0,0,0,0,0,4,
scooby_state_652402|16|1 4,0,0,0,0,0,0,0,0,0,0,0,0,0,0,4,
scooby_state_652300|12|0 4,0,0,0,0,0,0,0,0,0,0,0,0,0,0,4,
scooby_state_a310d4|2|-1 4,0,0,0,0,0,0,0,0,0,0,0,0,0,0,4,
scooby_state_623592|46|-2 4,0,0,0,0,0,0,0,0,0,0,0,0,0,0,4,
scooby_state_623580|61|-2 4,0,0,0,0,0,0,0,0,0,0,0,0,0,0,4,
scooby_state_a2e1e0|0|-1 4,0,0,0,0,0,0,0,0,0,0,0,0,0,0,4,
scooby_state_a3054d|37|-5 4,0,0,0,0,0,0,0,0,0,0,0,0,0,0,4,
scooby_state_a44cf8|51|0 0,4,0,0,0,0,0,0,0,0,0,0,0,0,0,4,
scooby_state_620a40|26|1 4,0,0,0,0,0,0,0,0,0,0,0,0,0,0,4,
scooby_state_658570|41|0 2,2,0,0,0,0,0,0,0,0,0,0,0,0,0,4,
scooby_state_620a40|37|1 4,0,0,0,0,0,0,0,0,0,0,0,0,0,0,4,
scooby_state_65c94f|0|-40 4,0,0,0,0,0,0,0,0,0,0,0,0,0,0,4,
scooby_state_a3063f|55|-5 1,0,1,1,1,0,0,0,0,0,0,0,0,0,0,4,
scooby_state_8b7d7f|5|-12 4,0,0,0,0,0,0,0,0,0,0,0,0,0,0,4,
scooby_state_8b7fe5|35|-8 4,0,0,0,0,0,0,0,0,0,0,0,0,0,0,4,
scooby_state_a31075|34|-27 1,3,0,0,0,0,0,0,0,0,0,0,0,0,0,4,
scooby_state_9f99a5|12|3 1,2,1,0,0,0,0,0,0,0,0,0,0,0,0,4,
scooby_state_a3063f|30|-4 3,1,0,0,0,0,0,0,0,0,0,0,0,0,0,4,
scooby_state_621080|31|1 4,0,0,0,0,0,0,0,0,0,0,0,0,0,0,4,
scooby_state_65c94f|0|-46 4,0,0,0,0,0,0,0,0,0,0,0,0,0,0,4,
scooby_state_65fbf0|18|1 4,0,0,0,0,0,0,0,0,0,0,0,0,0,0,4,
scooby_state_65c910|11|-49 0,4,0,0,0,0,0,0,0,0,0,0,0,0,0,4,
scooby_state_65c94f|5|-49 4,0,0,0,0,0,0,0,0,0,0,0,0,0,0,4,
scooby_state_a392b6|39|31 4,0,0,0,0,0,0,0,0,0,0,0,0,0,0,4,
scooby_state_a7698f|38|1 4,0,0,0,0,0,0,0,0,0,0,0,0,0,0,4,
scooby_state_a0f241|9|1 4,0,0,0,0,0,0,0,0,0,0,0,0,0,0,4,
scooby_state_620a40|33|1 4,0,0,0,0,0,0,0,0,0,0,0,0,0,0,4,
scooby_state_658440|60|0 2,2,0,0,0,0,0,0,0,0,0,0,0,0,0,4,
scooby_state_65c94f|0|-43 4,0,0,0,0,0,0,0,0,0,0,0,0,0,0,4,
scooby_state_65c94f|22|-41 4,0,0,0,0,0,0,0,0,0,0,0,0,0,0,4,
scooby_state_a31115|3|-41 4,0,0,0,0,0,0,0,0,0,0,0,0,0,0,4,
scooby_state_8b7b50|45|0 4,0,0,0,0,0,0,0,0,0,0,0,0,0,0,4,
scooby_state_a31115|2|-4 4,0,0,0,0,0,0,0,0,0,0,0,0,0,0,4,
scooby_state_658570|47|0 2,2,0,0,0,0,0,0,0,0,0,0,0,0,0,4,
scooby_state_621080|11|1 4,0,0,0,0,0,0,0,0,0,0,0,0,0,0,4,
scooby_state_65c94f|16|-47 4,0,0,0,0,0,0,0,0,0,0,0,0,0,0,4,
scooby_state_8b7d7f|6|6 4,0,0,0,0,0,0,0,0,0,0,0,0,0,0,4,
scooby_state_9fa902|36|-1 4,0,0,0,0,0,0,0,0,0,0,0,0,0,0,4,
scooby_state_620a40|17|1 4,0,0,0,0,0,0,0,0,0,0,0,0,0,0,4,
scooby_state_8b7c49|15|7 4,0,0,0,0,0,0,0,0,0,0,0,0,0,0,4,
scooby_state_8b7e6a|3|0 0,4,0,0,0,0,0,0,0,0,0,0,0,0,0,4,
scooby_state_8b7e82|58|1 4,0,0,0,0,0,0,0,0,0,0,0,0,0,0,4,
scooby_state_8b7e40|57|1 4,0,0,0,0,0,0,0,0,0,0,0,0,0,0,4,
scooby_state_8b7e11|30|-1 4,0,0,0,0,0,0,0,0,0,0,0,0,0,0,4,
scooby_state_8b7c49|14|7 4,0,0,0,0,0,0,0,0,0,0,0,0,0,0,4,
scooby_state_620a40|36|1 4,0,0,0,0,0,0,0,0,0,0,0,0,0,0,4,
scooby_state_8b7d7f|10|6 4,0,0,0,0,0,0,0,0,0,0,0,0,0,0,4,
scooby_state_8b7d64|4|-18 4,0,0,0,0,0,0,0,0,0,0,0,0,0,0,4,
scooby_state_8b7c87|28|-24 0,3,1,0,0,0,0,0,0,0,0,0,0,0,0,4,
scooby_state_8b7c67|52|18 0,4,0,0,0,0,0,0,0,0,0,0,0,0,0,4,
scooby_state_8b7d7f|9|6 4,0,0,0,0,0,0,0,0,0,0,0,0,0,0,4,
scooby_state_8b7d64|3|-18 4,0,0,0,0,0,0,0,0,0,0,0,0,0,0,4,
scooby_state_8b7c7e|21|-6 4,0,0,0,0,0,0,0,0,0,0,0,0,0,0,4,
scooby_state_8b7c87|27|-24 0,3,1,0,0,0,0,0,0,0,0,0,0,0,0,4,
scooby_state_8b7c58|33|18 4,0,0,0,0,0,0,0,0,0,0,0,0,0,0,4,
scooby_state_65fc20|29|1 4,0,0,0,0,0,0,0,0,0,0,0,0,0,0,4,
scooby_state_8b7d7f|8|6 4,0,0,0,0,0,0,0,0,0,0,0,0,0,0,4,
scooby_state_6548c1|35|1 4,0,0,0,0,0,0,0,0,0,0,0,0,0,0,4,
scooby_state_8b7c87|26|-24 0,3,1,0,0,0,0,0,0,0,0,0,0,0,0,4,
scooby_state_a31115|42|14 1,3,0,0,0,0,0,0,0,0,0,0,0,0,0,4,
scooby_state_65fc20|17|1 4,0,0,0,0,0,0,0,0,0,0,0,0,0,0,4,
scooby_state_620a40|0|0 0,4,0,0,0,0,0,0,0,0,0,0,0,0,0,4,
scooby_state_9f99a5|37|3 1,2,1,0,0,0,0,0,0,0,0,0,0,0,0,4,
scooby_state_960ec3|59|1 1,3,0,0,0,0,0,0,0,0,0,0,0,0,0,4,
scooby_state_8b7d7f|7|6 4,0,0,0,0,0,0,0,0,0,0,0,0,0,0,4,
scooby_state_a78246|9|1 3,1,0,0,0,0,0,0,0,0,0,0,0,0,0,4,
scooby_state_8b7c7e|19|-6 4,0,0,0,0,0,0,0,0,0,0,0,0,0,0,4,
scooby_state_a31c40|49|-4 0,4,0,0,0,0,0,0,0,0,0,0,0,0,0,4,
scooby_state_8b7c67|49|18 0,4,0,0,0,0,0,0,0,0,0,0,0,0,0,4,
scooby_state_8b7c58|31|18 4,0,0,0,0,0,0,0,0,0,0,0,0,0,0,4,
scooby_state_8b7c49|13|7 4,0,0,0,0,0,0,0,0,0,0,0,0,0,0,4,
scooby_state_621080|15|1 4,0,0,0,0,0,0,0,0,0,0,0,0,0,0,4,
scooby_state_621080|25|1 4,0,0,0,0,0,0,0,0,0,0,0,0,0,0,4,
scooby_state_a43b90|46|0 4,0,0,0,0,0,0,0,0,0,0,0,0,0,0,4,
scooby_state_621080|50|1 4,0,0,0,0,0,0,0,0,0,0,0,0,0,0,4,
scooby_state_658570|55|0 2,2,0,0,0,0,0,0,0,0,0,0,0,0,0,4,
scooby_state_a24401|16|1 4,0,0,0,0,0,0,0,0,0,0,0,0,0,0,4,
scooby_state_926260|58|1 4,0,0,0,0,0,0,0,0,0,0,0,0,0,0,4,
scooby_state_620a40|55|1 4,0,0,0,0,0,0,0,0,0,0,0,0,0,0,4,
scooby_state_927d41|53|1 4,0,0,0,0,0,0,0,0,0,0,0,0,0,0,4,
scooby_state_a2e969|37|-2 4,0,0,0,0,0,0,0,0,0,0,0,0,0,0,4,
scooby_state_620a40|52|1 4,0,0,0,0,0,0,0,0,0,0,0,0,0,0,4,
scooby_state_929903|36|1 4,0,0,0,0,0,0,0,0,0,0,0,0,0,0,4,
scooby_state_620a40|12|1 4,0,0,0,0,0,0,0,0,0,0,0,0,0,0,4,
scooby_state_929b01|44|1 4,0,0,0,0,0,0,0,0,0,0,0,0,0,0,4,
scooby_state_654980|38|1 4,0,0,0,0,0,0,0,0,0,0,0,0,0,0,4,
scooby_state_658440|5|-25 2,2,0,0,0,0,0,0,0,0,0,0,0,0,0,4,
scooby_state_960980|38|1 4,0,0,0,0,0,0,0,0,0,0,0,0,0,0,4,
scooby_state_8b7c67|51|18 0,4,0,0,0,0,0,0,0,0,0,0,0,0,0,4,
scooby_state_960e43|57|1 4,0,0,0,0,0,0,0,0,0,0,0,0,0,0,4,
scooby_state_621080|56|1 4,0,0,0,0,0,0,0,0,0,0,0,0,0,0,4,
scooby_state_621080|8|1 4,0,0,0,0,0,0,0,0,0,0,0,0,0,0,4,
scooby_state_658570|8|-25 0,2,2,0,0,0,0,0,0,0,0,0,0,0,0,4,
scooby_state_620a40|41|1 4,0,0,0,0,0,0,0,0,0,0,0,0,0,0,4,
scooby_state_a24343|13|1 4,0,0,0,0,0,0,0,0,0,0,0,0,0,0,4,
scooby_state_65fc20|18|1 4,0,0,0,0,0,0,0,0,0,0,0,0,0,0,4,
scooby_state_9fa962|37|-1 4,0,0,0,0,0,0,0,0,0,0,0,0,0,0,4,
scooby_state_a31115|29|-24 4,0,0,0,0,0,0,0,0,0,0,0,0,0,0,4,
scooby_state_8b7ea4|41|0 4,0,0,0,0,0,0,0,0,0,0,0,0,0,0,4,
scooby_state_a24242|9|1 3,1,0,0,0,0,0,0,0,0,0,0,0,0,0,4,
scooby_state_928942|37|1 4,0,0,0,0,0,0,0,0,0,0,0,0,0,0,4,
scooby_state_621080|10|1 4,0,0,0,0,0,0,0,0,0,0,0,0,0,0,4,
scooby_state_a78283|10|1 4,0,0,0,0,0,0,0,0,0,0,0,0,0,0,4,
scooby_state_658570|61|0 2,2,0,0,0,0,0,0,0,0,0,0,0,0,0,4,
scooby_state_65242b|59|1 4,0,0,0,0,0,0,0,0,0,0,0,0,0,0,4,
scooby_state_6523c3|15|1 4,0,0,0,0,0,0,0,0,0,0,0,0,0,0,4,
scooby_state_621080|32|1 4,0,0,0,0,0,0,0,0,0,0,0,0,0,0,4,
scooby_state_928d86|54|1 0,4,0,0,0,0,0,0,0,0,0,0,0,0,0,4,
scooby_state_a46938|36|0 4,0,0,0,0,0,0,0,0,0,0,0,0,0,0,4,
scooby_state_620a40|28|1 4,0,0,0,0,0,0,0,0,0,0,0,0,0,0,4,
scooby_state_a3063f|29|-5 1,0,1,1,1,0,0,0,0,0,0,0,0,0,0,4,
scooby_state_658570|22|-25 0,2,2,0,0,0,0,0,0,0,0,0,0,0,0,4,
scooby_state_a3068d|15|-47 0,4,0,0,0,0,0,0,0,0,0,0,0,0,0,4,
scooby_state_620a40|25|1 4,0,0,0,0,0,0,0,0,0,0,0,0,0,0,4,
scooby_state_65c94f|19|-44 4,0,0,0,0,0,0,0,0,0,0,0,0,0,0,4,
scooby_state_65fc20|30|1 4,0,0,0,0,0,0,0,0,0,0,0,0,0,0,4,
scooby_state_8b7f50|55|15 4,0,0,0,0,0,0,0,0,0,0,0,0,0,0,4,
scooby_state_654903|36|1 4,0,0,0,0,0,0,0,0,0,0,0,0,0,0,4,
scooby_state_620a40|47|1 4,0,0,0,0,0,0,0,0,0,0,0,0,0,0,4,
scooby_state_620a40|7|1 4,0,0,0,0,0,0,0,0,0,0,0,0,0,0,4,
scooby_state_620a40|21|1 4,0,0,0,0,0,0,0,0,0,0,0,0,0,0,4,
scooby_state_8b7c58|32|18 4,0,0,0,0,0,0,0,0,0,0,0,0,0,0,4,
scooby_state_a31d0d|9|0 4,0,0,0,0,0,0,0,0,0,0,0,0,0,0,4,
scooby_state_926260|63|1 4,0,0,0,0,0,0,0,0,0,0,0,0,0,0,4,
scooby_state_658440|51|0 2,2,0,0,0,0,0,0,0,0,0,0,0,0,0,4,
scooby_state_620a40|38|1 4,0,0,0,0,0,0,0,0,0,0,0,0,0,0,4,
scooby_state_621080|6|1 4,0,0,0,0,0,0,0,0,0,0,0,0,0,0,4,
scooby_state_620a40|20|1 4,0,0,0,0,0,0,0,0,0,0,0,0,0,0,4,
scooby_state_65fbf0|0|-63 4,0,0,0,0,0,0,0,0,0,0,0,0,0,0,4,
scooby_state_658440|23|-25 2,2,0,0,0,0,0,0,0,0,0,0,0,0,0,4,
scooby_state_658440|27|-25 2,2,0,0,0,0,0,0,0,0,0,0,0,0,0,4,
scooby_state_6564e5|32|0 4,0,0,0,0,0,0,0,0,0,0,0,0,0,0,4,
scooby_state_65c910|36|-27 0,4,0,0,0,0,0,0,0,0,0,0,0,0,0,4,
scooby_state_658570|6|-25 0,2,2,0,0,0,0,0,0,0,0,0,0,0,0,4,
scooby_state_926260|12|-24 4,0,0,0,0,0,0,0,0,0,0,0,0,0,0,4,
scooby_state_a30847|33|-4 4,0,0,0,0,0,0,0,0,0,0,0,0,0,0,4,
scooby_state_9f99a5|39|2 2,2,0,0,0,0,0,0,0,0,0,0,0,0,0,4,
scooby_state_620a40|23|1 4,0,0,0,0,0,0,0,0,0,0,0,0,0,0,4,
scooby_state_620a40|19|1 4,0,0,0,0,0,0,0,0,0,0,0,0,0,0,4,
scooby_state_620a40|8|1 4,0,0,0,0,0,0,0,0,0,0,0,0,0,0,4,
scooby_state_6554c2|19|1 4,0,0,0,0,0,0,0,0,0,0,0,0,0,0,4,
scooby_state_620a40|16|1 4,0,0,0,0,0,0,0,0,0,0,0,0,0,0,4,
scooby_state_620a40|11|1 4,0,0,0,0,0,0,0,0,0,0,0,0,0,0,4,
scooby_state_a22346|13|1 4,0,0,0,0,0,0,0,0,0,0,0,0,0,0,4,
scooby_state_620a40|10|1 4,0,0,0,0,0,0,0,0,0,0,0,0,0,0,4,
scooby_state_620a40|9|1 4,0,0,0,0,0,0,0,0,0,0,0,0,0,0,4,
scooby_state_620a40|4|1 4,0,0,0,0,0,0,0,0,0,0,0,0,0,0,4,
scooby_state_620a40|3|1 4,0,0,0,0,0,0,0,0,0,0,0,0,0,0,4,
scooby_state_620a40|63|1 4,0,0,0,0,0,0,0,0,0,0,0,0,0,0,4,
scooby_state_620a40|61|1 4,0,0,0,0,0,0,0,0,0,0,0,0,0,0,4,
scooby_state_620a40|29|1 4,0,0,0,0,0,0,0,0,0,0,0,0,0,0,4,
scooby_state_8b7c49|16|7 4,0,0,0,0,0,0,0,0,0,0,0,0,0,0,4,
scooby_state_620a40|18|1 4,0,0,0,0,0,0,0,0,0,0,0,0,0,0,4,
scooby_state_8b7c87|24|-24 0,4,0,0,0,0,0,0,0,0,0,0,0,0,0,4,
scooby_state_8b7f5a|44|-10 4,0,0,0,0,0,0,0,0,0,0,0,0,0,0,4,
scooby_state_620a40|62|1 4,0,0,0,0,0,0,0,0,0,0,0,0,0,0,4,
scooby_state_621080|12|1 4,0,0,0,0,0,0,0,0,0,0,0,0,0,0,4,
scooby_state_8b7c67|50|18 0,4,0,0,0,0,0,0,0,0,0,0,0,0,0,4,
scooby_state_65c94f|8|-49 4,0,0,0,0,0,0,0,0,0,0,0,0,0,0,4,
scooby_state_621080|63|1 4,0,0,0,0,0,0,0,0,0,0,0,0,0,0,4,
scooby_state_a2236a|43|5 4,0,0,0,0,0,0,0,0,0,0,0,0,0,0,4,
scooby_state_621080|20|1 4,0,0,0,0,0,0,0,0,0,0,0,0,0,0,4,
scooby_state_621080|58|1 4,0,0,0,0,0,0,0,0,0,0,0,0,0,0,4,
scooby_state_621080|48|1 4,0,0,0,0,0,0,0,0,0,0,0,0,0,0,4,
scooby_state_620a40|15|1 4,0,0,0,0,0,0,0,0,0,0,0,0,0,0,4,
[...]
scooby_state_66a520|18|1 1,0,0,0,0,0,0,0,0,0,0,0,0,0,0,1,
scooby_state_6333c2|15|1 1,0,0,0,0,0,0,0,0,0,0,0,0,0,0,1,
scooby_state_a31082|2|1 1,0,0,0,0,0,0,0,0,0,0,0,0,0,0,1,
scooby_state_926a34|18|-13 1,0,0,0,0,0,0,0,0,0,0,0,0,0,0,1,
scooby_state_a38912|53|35 1,0,0,0,0,0,0,0,0,0,0,0,0,0,0,1,
scooby_state_a2e29c|51|0 0,1,0,0,0,0,0,0,0,0,0,0,0,0,0,1,
scooby_state_66a240|2|1 1,0,0,0,0,0,0,0,0,0,0,0,0,0,0,1,
scooby_state_620a40|60|0 0,1,0,0,0,0,0,0,0,0,0,0,0,0,0,1,
scooby_state_a2e2ae|53|41 1,0,0,0,0,0,0,0,0,0,0,0,0,0,0,1,
scooby_state_65cb23|56|1 1,0,0,0,0,0,0,0,0,0,0,0,0,0,0,1,
scooby_state_65bf00|60|1 1,0,0,0,0,0,0,0,0,0,0,0,0,0,0,1,
scooby_state_a2e29c|8|-27 1,0,0,0,0,0,0,0,0,0,0,0,0,0,0,1,
scooby_state_a3894e|19|-1 1,0,0,0,0,0,0,0,0,0,0,0,0,0,0,1,
scooby_state_a38924|44|19 1,0,0,0,0,0,0,0,0,0,0,0,0,0,0,1,
scooby_state_653300|12|1 1,0,0,0,0,0,0,0,0,0,0,0,0,0,0,1,
scooby_state_a2e2ae|33|-17 1,0,0,0,0,0,0,0,0,0,0,0,0,0,0,1,
scooby_state_66a980|38|1 1,0,0,0,0,0,0,0,0,0,0,0,0,0,0,1,
scooby_state_a3063f|27|-31 1,0,0,0,0,0,0,0,0,0,0,0,0,0,0,1,
scooby_state_a2e2ae|51|31 1,0,0,0,0,0,0,0,0,0,0,0,0,0,0,1,
scooby_state_655a87|42|1 1,0,0,0,0,0,0,0,0,0,0,0,0,0,0,1,
scooby_state_65b144|5|1 1,0,0,0,0,0,0,0,0,0,0,0,0,0,0,1,
scooby_state_66a300|42|0 1,0,0,0,0,0,0,0,0,0,0,0,0,0,0,1,
scooby_state_632c42|49|1 1,0,0,0,0,0,0,0,0,0,0,0,0,0,0,1,
scooby_state_65d811|63|15 0,1,0,0,0,0,0,0,0,0,0,0,0,0,0,1,
scooby_state_66b4c5|19|1 1,0,0,0,0,0,0,0,0,0,0,0,0,0,0,1,
scooby_state_635000|0|0 0,1,0,0,0,0,0,0,0,0,0,0,0,0,0,1,
scooby_state_9261bc|55|-2 1,0,0,0,0,0,0,0,0,0,0,0,0,0,0,1,
scooby_state_66b1f0|54|-1 1,0,0,0,0,0,0,0,0,0,0,0,0,0,0,1,
scooby_state_634701|28|1 1,0,0,0,0,0,0,0,0,0,0,0,0,0,0,1,
scooby_state_657d85|54|1 1,0,0,0,0,0,0,0,0,0,0,0,0,0,0,1,
scooby_state_633940|37|1 1,0,0,0,0,0,0,0,0,0,0,0,0,0,0,1,
scooby_state_926a68|0|-41 1,0,0,0,0,0,0,0,0,0,0,0,0,0,0,1,
scooby_state_a76903|36|-21 0,1,0,0,0,0,0,0,0,0,0,0,0,0,0,1,
scooby_state_656cc0|51|1 0,1,0,0,0,0,0,0,0,0,0,0,0,0,0,1,
scooby_state_a2e29c|46|9 1,0,0,0,0,0,0,0,0,0,0,0,0,0,0,1,
scooby_state_65c95f|26|14 1,0,0,0,0,0,0,0,0,0,0,0,0,0,0,1,
scooby_state_65860e|45|0 1,0,0,0,0,0,0,0,0,0,0,0,0,0,0,1,
scooby_state_a2e29c|40|27 1,0,0,0,0,0,0,0,0,0,0,0,0,0,0,1,
scooby_state_a38924|40|3 1,0,0,0,0,0,0,0,0,0,0,0,0,0,0,1,
scooby_state_63408f|52|0 1,0,0,0,0,0,0,0,0,0,0,0,0,0,0,1,
scooby_state_66af00|60|1 1,0,0,0,0,0,0,0,0,0,0,0,0,0,0,1,
scooby_state_928f84|62|1 1,0,0,0,0,0,0,0,0,0,0,0,0,0,0,1,
scooby_state_a78409|27|-1 0,1,0,0,0,0,0,0,0,0,0,0,0,0,0,1,
scooby_state_a82030|0|0 1,0,0,0,0,0,0,0,0,0,0,0,0,0,0,1,
scooby_state_66b460|25|-1 1,0,0,0,0,0,0,0,0,0,0,0,0,0,0,1,
scooby_state_a2e2ae|50|-8 1,0,0,0,0,0,0,0,0,0,0,0,0,0,0,1,
scooby_state_66b130|50|-1 1,0,0,0,0,0,0,0,0,0,0,0,0,0,0,1,
scooby_state_a3063f|34|31 0,1,0,0,0,0,0,0,0,0,0,0,0,0,0,1,
scooby_state_6330c1|3|1 0,1,0,0,0,0,0,0,0,0,0,0,0,0,0,1,
scooby_state_926a7a|37|1 1,0,0,0,0,0,0,0,0,0,0,0,0,0,0,1,
scooby_state_66a6b0|41|-1 1,0,0,0,0,0,0,0,0,0,0,0,0,0,0,1,
scooby_state_a38924|30|-29 1,0,0,0,0,0,0,0,0,0,0,0,0,0,0,1,
scooby_state_926260|10|0 0,1,0,0,0,0,0,0,0,0,0,0,0,0,0,1,
scooby_state_66ab00|44|1 1,0,0,0,0,0,0,0,0,0,0,0,0,0,0,1,
scooby_state_66af10|46|-1 1,0,0,0,0,0,0,0,0,0,0,0,0,0,0,1,
scooby_state_926ae8|50|1 1,0,0,0,0,0,0,0,0,0,0,0,0,0,0,1,
scooby_state_65e720|0|-6 1,0,0,0,0,0,0,0,0,0,0,0,0,0,0,1,
scooby_state_634ca7|10|-1 1,0,0,0,0,0,0,0,0,0,0,0,0,0,0,1,
scooby_state_a38924|12|-14 0,1,0,0,0,0,0,0,0,0,0,0,0,0,0,1,
scooby_state_65c490|32|1 1,0,0,0,0,0,0,0,0,0,0,0,0,0,0,1,
scooby_state_a3063f|39|-4 0,0,0,1,0,0,0,0,0,0,0,0,0,0,0,1,
scooby_state_66af10|44|-1 1,0,0,0,0,0,0,0,0,0,0,0,0,0,0,1,
scooby_state_65cd70|0|-34 1,0,0,0,0,0,0,0,0,0,0,0,0,0,0,1,
scooby_state_66af10|42|-1 1,0,0,0,0,0,0,0,0,0,0,0,0,0,0,1,
scooby_state_66ab2d|61|26 1,0,0,0,0,0,0,0,0,0,0,0,0,0,0,1,
scooby_state_621014|38|1 0,1,0,0,0,0,0,0,0,0,0,0,0,0,0,1,
scooby_state_66b130|58|0 1,0,0,0,0,0,0,0,0,0,0,0,0,0,0,1,
scooby_state_66afca|58|-4 1,0,0,0,0,0,0,0,0,0,0,0,0,0,0,1,
scooby_state_65c196|49|-1 1,0,0,0,0,0,0,0,0,0,0,0,0,0,0,1,
scooby_state_66b382|14|1 1,0,0,0,0,0,0,0,0,0,0,0,0,0,0,1,
scooby_state_a2e2ae|18|18 1,0,0,0,0,0,0,0,0,0,0,0,0,0,0,1,
scooby_state_66a3b0|34|1 1,0,0,0,0,0,0,0,0,0,0,0,0,0,0,1,
scooby_state_660b33|14|8 0,1,0,0,0,0,0,0,0,0,0,0,0,0,0,1,
scooby_state_a2e2ae|24|0 1,0,0,0,0,0,0,0,0,0,0,0,0,0,0,1,
scooby_state_635076|32|-1 1,0,0,0,0,0,0,0,0,0,0,0,0,0,0,1,
scooby_state_66b070|48|-1 1,0,0,0,0,0,0,0,0,0,0,0,0,0,0,1,
scooby_state_66a7c7|56|15 1,0,0,0,0,0,0,0,0,0,0,0,0,0,0,1,
scooby_state_658440|43|25 1,0,0,0,0,0,0,0,0,0,0,0,0,0,0,1,
scooby_state_66afa0|26|-1 1,0,0,0,0,0,0,0,0,0,0,0,0,0,0,1,
scooby_state_a2e29c|8|-12 1,0,0,0,0,0,0,0,0,0,0,0,0,0,0,1,
scooby_state_927d60|62|3 1,0,0,0,0,0,0,0,0,0,0,0,0,0,0,1,
scooby_state_a2e2ae|53|-3 1,0,0,0,0,0,0,0,0,0,0,0,0,0,0,1,
scooby_state_632ac3|43|1 1,0,0,0,0,0,0,0,0,0,0,0,0,0,0,1,
scooby_state_6333a9|46|0 1,0,0,0,0,0,0,0,0,0,0,0,0,0,0,1,
scooby_state_66b460|15|-1 1,0,0,0,0,0,0,0,0,0,0,0,0,0,0,1,
scooby_state_65c350|19|1 0,1,0,0,0,0,0,0,0,0,0,0,0,0,0,1,
scooby_state_6215b0|24|1 1,0,0,0,0,0,0,0,0,0,0,0,0,0,0,1,
scooby_state_a2e29c|10|-24 0,1,0,0,0,0,0,0,0,0,0,0,0,0,0,1,
scooby_state_65c490|31|1 1,0,0,0,0,0,0,0,0,0,0,0,0,0,0,1,
scooby_state_926a34|19|-13 1,0,0,0,0,0,0,0,0,0,0,0,0,0,0,1,
scooby_state_65c350|12|-39 1,0,0,0,0,0,0,0,0,0,0,0,0,0,0,1,
scooby_state_66ab42|45|1 1,0,0,0,0,0,0,0,0,0,0,0,0,0,0,1,
scooby_state_634094|51|0 0,1,0,0,0,0,0,0,0,0,0,0,0,0,0,1,
scooby_state_66b370|30|-1 1,0,0,0,0,0,0,0,0,0,0,0,0,0,0,1,
scooby_state_65b0e0|3|0 1,0,0,0,0,0,0,0,0,0,0,0,0,0,0,1,
scooby_state_927d60|49|4 1,0,0,0,0,0,0,0,0,0,0,0,0,0,0,1,
scooby_state_65ff0b|41|40 1,0,0,0,0,0,0,0,0,0,0,0,0,0,0,1,
scooby_state_65d060|52|51 0,1,0,0,0,0,0,0,0,0,0,0,0,0,0,1,
scooby_state_634077|46|2 0,1,0,0,0,0,0,0,0,0,0,0,0,0,0,1,
scooby_state_66b540|12|-1 1,0,0,0,0,0,0,0,0,0,0,0,0,0,0,1,
scooby_state_657000|0|0 1,0,0,0,0,0,0,0,0,0,0,0,0,0,0,1,
scooby_state_66b600|49|-1 1,0,0,0,0,0,0,0,0,0,0,0,0,0,0,1,
scooby_state_a2e2ae|58|11 1,0,0,0,0,0,0,0,0,0,0,0,0,0,0,1,
scooby_state_66b17a|61|2 1,0,0,0,0,0,0,0,0,0,0,0,0,0,0,1,
scooby_state_66b1f0|50|-1 1,0,0,0,0,0,0,0,0,0,0,0,0,0,0,1,
scooby_state_a2e2ae|38|21 1,0,0,0,0,0,0,0,0,0,0,0,0,0,0,1,
scooby_state_a2e29c|49|38 1,0,0,0,0,0,0,0,0,0,0,0,0,0,0,1,
scooby_state_634100|4|1 1,0,0,0,0,0,0,0,0,0,0,0,0,0,0,1,
scooby_state_657d20|11|1 1,0,0,0,0,0,0,0,0,0,0,0,0,0,0,1,
scooby_state_927f47|27|27 1,0,0,0,0,0,0,0,0,0,0,0,0,0,0,1,
scooby_state_65c350|17|-39 1,0,0,0,0,0,0,0,0,0,0,0,0,0,0,1,
scooby_state_66b460|17|-1 1,0,0,0,0,0,0,0,0,0,0,0,0,0,0,1,
scooby_state_632cc4|51|1 1,0,0,0,0,0,0,0,0,0,0,0,0,0,0,1,
scooby_state_a77dc2|55|-2 1,0,0,0,0,0,0,0,0,0,0,0,0,0,0,1,
scooby_state_66af10|47|-1 1,0,0,0,0,0,0,0,0,0,0,0,0,0,0,1,
scooby_state_66b1f0|48|-1 1,0,0,0,0,0,0,0,0,0,0,0,0,0,0,1,
scooby_state_a761d2|62|-1 0,1,0,0,0,0,0,0,0,0,0,0,0,0,0,1,
scooby_state_a38924|11|-4 1,0,0,0,0,0,0,0,0,0,0,0,0,0,0,1,
scooby_state_a2e2ae|3|-28 0,0,1,0,0,0,0,0,0,0,0,0,0,0,0,1,
scooby_state_65c910|44|26 0,1,0,0,0,0,0,0,0,0,0,0,0,0,0,1,
scooby_state_a2e29c|56|52 1,0,0,0,0,0,0,0,0,0,0,0,0,0,0,1,
scooby_state_a2e2ae|50|40 1,0,0,0,0,0,0,0,0,0,0,0,0,0,0,1,
scooby_state_66b1f0|43|-1 1,0,0,0,0,0,0,0,0,0,0,0,0,0,0,1,
scooby_state_a3894e|41|1 1,0,0,0,0,0,0,0,0,0,0,0,0,0,0,1,
scooby_state_636201|8|1 0,1,0,0,0,0,0,0,0,0,0,0,0,0,0,1,
scooby_state_66adf0|28|-1 1,0,0,0,0,0,0,0,0,0,0,0,0,0,0,1,
scooby_state_926ba0|34|14 1,0,0,0,0,0,0,0,0,0,0,0,0,0,0,1,
scooby_state_926cb0|29|1 0,1,0,0,0,0,0,0,0,0,0,0,0,0,0,1,
scooby_state_a78409|28|26 0,1,0,0,0,0,0,0,0,0,0,0,0,0,0,1,
scooby_state_66a300|37|-1 1,0,0,0,0,0,0,0,0,0,0,0,0,0,0,1,
scooby_state_65e980|38|1 1,0,0,0,0,0,0,0,0,0,0,0,0,0,0,1,
scooby_state_66ad43|53|1 1,0,0,0,0,0,0,0,0,0,0,0,0,0,0,1,
scooby_state_65e1c2|7|1 1,0,0,0,0,0,0,0,0,0,0,0,0,0,0,1,
scooby_state_a2e2ae|50|-12 1,0,0,0,0,0,0,0,0,0,0,0,0,0,0,1,
scooby_state_63f382|14|1 1,0,0,0,0,0,0,0,0,0,0,0,0,0,0,1,
scooby_state_652640|25|-7 0,1,0,0,0,0,0,0,0,0,0,0,0,0,0,1,
scooby_state_66adf0|27|-1 1,0,0,0,0,0,0,0,0,0,0,0,0,0,0,1,
scooby_state_a3894e|16|-25 1,0,0,0,0,0,0,0,0,0,0,0,0,0,0,1,
scooby_state_8a8d77|53|29 1,0,0,0,0,0,0,0,0,0,0,0,0,0,0,1,
scooby_state_a2e2ae|45|0 1,0,0,0,0,0,0,0,0,0,0,0,0,0,0,1,
scooby_state_66b540|9|-1 1,0,0,0,0,0,0,0,0,0,0,0,0,0,0,1,
scooby_state_a31093|54|-4 1,0,0,0,0,0,0,0,0,0,0,0,0,0,0,1,
scooby_state_a38924|53|29 1,0,0,0,0,0,0,0,0,0,0,0,0,0,0,1,
scooby_state_a3063f|60|58 1,0,0,0,0,0,0,0,0,0,0,0,0,0,0,1,
scooby_state_632fc2|63|1 0,1,0,0,0,0,0,0,0,0,0,0,0,0,0,1,
scooby_state_66adc0|55|1 1,0,0,0,0,0,0,0,0,0,0,0,0,0,0,1,
scooby_state_6582e0|13|-1 1,0,0,0,0,0,0,0,0,0,0,0,0,0,0,1,
scooby_state_a31183|6|1 1,0,0,0,0,0,0,0,0,0,0,0,0,0,0,1,
scooby_state_65fef5|41|-13 1,0,0,0,0,0,0,0,0,0,0,0,0,0,0,1,
scooby_state_66ad64|62|-1 1,0,0,0,0,0,0,0,0,0,0,0,0,0,0,1,
scooby_state_621165|5|2 1,0,0,0,0,0,0,0,0,0,0,0,0,0,0,1,
scooby_state_a78541|21|19 1,0,0,0,0,0,0,0,0,0,0,0,0,0,0,1,
scooby_state_633aef|52|0 0,1,0,0,0,0,0,0,0,0,0,0,0,0,0,1,
scooby_state_a2e29c|47|-7 0,1,0,0,0,0,0,0,0,0,0,0,0,0,0,1,
scooby_state_66b869|48|1 1,0,0,0,0,0,0,0,0,0,0,0,0,0,0,1,
scooby_state_a2e29c|58|14 1,0,0,0,0,0,0,0,0,0,0,0,0,0,0,1,
scooby_state_66abc0|2|-1 1,0,0,0,0,0,0,0,0,0,0,0,0,0,0,1,
scooby_state_65c35a|33|-13 1,0,0,0,0,0,0,0,0,0,0,0,0,0,0,1,
scooby_state_66b142|5|1 1,0,0,0,0,0,0,0,0,0,0,0,0,0,0,1,
scooby_state_66abc0|1|-1 1,0,0,0,0,0,0,0,0,0,0,0,0,0,0,1,
scooby_state_66b460|2|-40 1,0,0,0,0,0,0,0,0,0,0,0,0,0,0,1,
scooby_state_66a5f0|41|0 1,0,0,0,0,0,0,0,0,0,0,0,0,0,0,1,
scooby_state_633880|34|1 1,0,0,0,0,0,0,0,0,0,0,0,0,0,0,1,
scooby_state_a2e29c|53|-9 0,1,0,0,0,0,0,0,0,0,0,0,0,0,0,1,
scooby_state_65ca40|36|13 1,0,0,0,0,0,0,0,0,0,0,0,0,0,0,1,
scooby_state_a2e29c|53|-5 1,0,0,0,0,0,0,0,0,0,0,0,0,0,0,1,
scooby_state_a2e29c|3|-51 1,0,0,0,0,0,0,0,0,0,0,0,0,0,0,1,
scooby_state_66b130|57|-1 1,0,0,0,0,0,0,0,0,0,0,0,0,0,0,1,
scooby_state_926bc2|47|2 1,0,0,0,0,0,0,0,0,0,0,0,0,0,0,1,
scooby_state_926ae8|32|1 1,0,0,0,0,0,0,0,0,0,0,0,0,0,0,1,
scooby_state_63323b|33|-16 1,0,0,0,0,0,0,0,0,0,0,0,0,0,0,1,
scooby_state_6360c2|3|1 1,0,0,0,0,0,0,0,0,0,0,0,0,0,0,1,
scooby_state_6235ca|6|-35 1,0,0,0,0,0,0,0,0,0,0,0,0,0,0,1,
scooby_state_66afa0|25|-1 1,0,0,0,0,0,0,0,0,0,0,0,0,0,0,1,
scooby_state_658705|28|1 1,0,0,0,0,0,0,0,0,0,0,0,0,0,0,1,
scooby_state_66ae80|9|-1 1,0,0,0,0,0,0,0,0,0,0,0,0,0,0,1,
scooby_state_66ae80|11|-1 1,0,0,0,0,0,0,0,0,0,0,0,0,0,0,1,
scooby_state_6575a0|35|1 1,0,0,0,0,0,0,0,0,0,0,0,0,0,0,1,
scooby_state_92ba80|42|1 1,0,0,0,0,0,0,0,0,0,0,0,0,0,0,1,
scooby_state_66ae80|58|1 1,0,0,0,0,0,0,0,0,0,0,0,0,0,0,1,
scooby_state_66abc0|0|-1 1,0,0,0,0,0,0,0,0,0,0,0,0,0,0,1,
scooby_state_66a5f0|39|-1 1,0,0,0,0,0,0,0,0,0,0,0,0,0,0,1,
scooby_state_a2e29c|12|-24 1,0,0,0,0,0,0,0,0,0,0,0,0,0,0,1,
scooby_state_66b600|56|-1 1,0,0,0,0,0,0,0,0,0,0,0,0,0,0,1,
scooby_state_a38924|14|-42 1,0,0,0,0,0,0,0,0,0,0,0,0,0,0,1,
scooby_state_a3894e|31|-2 1,0,0,0,0,0,0,0,0,0,0,0,0,0,0,1,
scooby_state_66ae80|10|-1 1,0,0,0,0,0,0,0,0,0,0,0,0,0,0,1,
scooby_state_a3063f|8|0 1,0,0,0,0,0,0,0,0,0,0,0,0,0,0,1,
scooby_state_a78261|31|4 0,1,0,0,0,0,0,0,0,0,0,0,0,0,0,1,
scooby_state_a3063f|10|-40 1,0,0,0,0,0,0,0,0,0,0,0,0,0,0,1,
scooby_state_926ae8|42|15 1,0,0,0,0,0,0,0,0,0,0,0,0,0,0,1,
scooby_state_660fc1|63|1 1,0,0,0,0,0,0,0,0,0,0,0,0,0,0,1,
scooby_state_635704|28|1 1,0,0,0,0,0,0,0,0,0,0,0,0,0,0,1,
scooby_state_65c2a9|2|-2 1,0,0,0,0,0,0,0,0,0,0,0,0,0,0,1,
scooby_state_66a6b0|35|-1 1,0,0,0,0,0,0,0,0,0,0,0,0,0,0,1,
scooby_state_a773e5|48|1 1,0,0,0,0,0,0,0,0,0,0,0,0,0,0,1,
scooby_state_66af10|50|-1 1,0,0,0,0,0,0,0,0,0,0,0,0,0,0,1,
scooby_state_66af10|49|-1 1,0,0,0,0,0,0,0,0,0,0,0,0,0,0,1,
scooby_state_a3894e|30|8 1,0,0,0,0,0,0,0,0,0,0,0,0,0,0,1,
scooby_state_66a6b0|33|-1 1,0,0,0,0,0,0,0,0,0,0,0,0,0,0,1,
scooby_state_65c754|49|1 0,1,0,0,0,0,0,0,0,0,0,0,0,0,0,1,
scooby_state_a3063f|21|-5 0,0,0,0,1,0,0,0,0,0,0,0,0,0,0,1,
scooby_state_66a6b0|42|-1 1,0,0,0,0,0,0,0,0,0,0,0,0,0,0,1,
scooby_state_6603e9|14|3 1,0,0,0,0,0,0,0,0,0,0,0,0,0,0,1,
scooby_state_633e01|56|1 1,0,0,0,0,0,0,0,0,0,0,0,0,0,0,1,
scooby_state_66ae80|13|0 1,0,0,0,0,0,0,0,0,0,0,0,0,0,0,1,
scooby_state_65db82|46|1 1,0,0,0,0,0,0,0,0,0,0,0,0,0,0,1,
scooby_state_66adf0|34|-1 1,0,0,0,0,0,0,0,0,0,0,0,0,0,0,1,
scooby_state_6605c1|23|1 1,0,0,0,0,0,0,0,0,0,0,0,0,0,0,1,
scooby_state_6603c2|15|1 1,0,0,0,0,0,0,0,0,0,0,0,0,0,0,1,
scooby_state_92c684|26|1 1,0,0,0,0,0,0,0,0,0,0,0,0,0,0,1,
scooby_state_633602|24|1 1,0,0,0,0,0,0,0,0,0,0,0,0,0,0,1,
scooby_state_a78404|16|1 1,0,0,0,0,0,0,0,0,0,0,0,0,0,0,1,
scooby_state_66b840|35|-1 1,0,0,0,0,0,0,0,0,0,0,0,0,0,0,1,
scooby_state_9f9282|10|1 1,0,0,0,0,0,0,0,0,0,0,0,0,0,0,1,
scooby_state_a38924|52|0 1,0,0,0,0,0,0,0,0,0,0,0,0,0,0,1,
scooby_state_8a8541|21|1 1,0,0,0,0,0,0,0,0,0,0,0,0,0,0,1,
scooby_state_621550|21|0 1,0,0,0,0,0,0,0,0,0,0,0,0,0,0,1,
scooby_state_66aac1|43|1 1,0,0,0,0,0,0,0,0,0,0,0,0,0,0,1,
scooby_state_66b540|5|-1 1,0,0,0,0,0,0,0,0,0,0,0,0,0,0,1,
scooby_state_6552c3|11|0 1,0,0,0,0,0,0,0,0,0,0,0,0,0,0,1,
scooby_state_66080a|4|-13 1,0,0,0,0,0,0,0,0,0,0,0,0,0,0,1,
scooby_state_65c080|2|-1 0,1,0,0,0,0,0,0,0,0,0,0,0,0,0,1,

scooby_action_0_deg_dist 0,1,0,0,0,0,0,0,0,0,0,0,0,0,0,0,
scooby_action_12_deg_dist 0,1,0,0,0,0,0,0,0,0,0,0,0,0,0,0,
scooby_action_4_deg_dist 0,175,18,0,18,0,6,0,0,0,0,0,0,0,0,0,
scooby_action_1_deg_dist 0,2101,951,0,1636,0,16654,0,0,0,0,0,0,0,0,0,
scooby_action_30_deg_dist 0,3,0,0,0,0,0,0,0,0,0,0,0,0,0,0,
scooby_action_3_deg_dist 0,1421,651,0,1008,0,855,0,0,0,0,0,0,0,0,0,
scooby_action_32_deg_dist 0,6,0,0,0,0,0,0,0,0,0,0,0,0,0,0,
scooby_action_5_deg_dist 0,71,4,0,0,0,0,0,0,0,0,0,0,0,0,0,
scooby_action_-3_deg_dist 0,2,0,0,0,0,0,0,0,0,0,0,0,0,0,0,
scooby_action_10_deg_dist 0,23,6,0,4,0,0,0,0,0,0,0,0,0,0,0,
scooby_action_-1_deg_dist 0,1,0,0,0,0,0,0,0,0,0,0,0,0,0,0,
scooby_action_23_deg_dist 0,3,0,0,0,0,0,0,0,0,0,0,0,0,0,0,
scooby_action_-6_deg_dist 0,2,0,0,0,0,0,0,0,0,0,0,0,0,0,0,
scooby_action_11_deg_dist 0,7,0,0,0,0,0,0,0,0,0,0,0,0,0,0,
scooby_action_22_deg_dist 0,2,0,0,0,0,0,0,0,0,0,0,0,0,0,0,

scooby_track_called 25630
scooby_track_same_address 671
scooby_track_evict 24703

scooby_reward_demand_called 25630
scooby_reward_demand_pt_not_found 6618
scooby_reward_demand_pt_found 19012
scooby_reward_demand_pt_found_total 19012
scooby_reward_demand_has_reward 55
scooby_reward_train_called 5299
scooby_reward_assign_reward_called 24809
scooby_reward_no_pref 1
scooby_reward_incorrect 5298
scooby_reward_correct_untimely 18242
scooby_reward_correct_timely 715
scooby_reward_out_of_bounds 553
scooby_reward_tracker_hit 0

scooby_reward_none_low_bw 1
scooby_reward_none_high_bw 0
scooby_reward_incorrect_low_bw 5298
scooby_reward_incorrect_high_bw 0
scooby_reward_correct_untimely_low_bw 18242
scooby_reward_correct_untimely_high_bw 0
scooby_reward_correct_timely_low_bw 715
scooby_reward_correct_timely_high_bw 0
scooby_reward_out_of_bounds_low_bw 553
scooby_reward_out_of_bounds_high_bw 0
scooby_reward_tracker_hit_low_bw 0
scooby_reward_tracker_hit_high_bw 0

scooby_reward_1 0,4068,15699,582,341,0,
scooby_reward_3 0,999,2492,126,188,0,
scooby_reward_4 0,167,17,6,8,0,
scooby_reward_5 0,32,27,0,6,0,
scooby_reward_10 0,26,4,0,1,0,
scooby_reward_11 0,4,1,0,1,0,
scooby_reward_12 0,0,1,0,0,0,
scooby_reward_22 0,1,0,0,1,0,
scooby_reward_23 0,0,0,0,2,0,
scooby_reward_30 0,0,0,0,2,0,
scooby_reward_32 0,1,1,1,3,0,
scooby_reward_-1 0,0,0,0,0,0,
scooby_reward_-3 0,0,0,0,0,0,
scooby_reward_-6 0,0,0,0,0,0,
scooby_reward_0 1,0,0,0,0,0,

scooby_train_called 24702
scooby_train_compute_reward 5299

scooby_register_fill_called 6456
scooby_register_fill_set 2091
scooby_register_fill_set_total 2091

scooby_register_prefetch_hit_called 88955
scooby_register_prefetch_hit_set 28178
scooby_register_prefetch_hit_set_total 28178

scooby_pref_issue_scooby 112734

learning_engine_featurewise.action.called 25630
learning_engine_featurewise.action.explore 44
learning_engine_featurewise.action.exploit 25586
learning_engine_featurewise.action.fallback 0
learning_engine_featurewise.action.dyn_fallback_saved_bw 0
learning_engine_featurewise.action.dyn_fallback_saved_bw_acc 1337
learning_engine_featurewise.action.index_1_explored 3
learning_engine_featurewise.action.index_1_exploited 21339
learning_engine_featurewise.action.index_3_explored 4
learning_engine_featurewise.action.index_3_exploited 3931
learning_engine_featurewise.action.index_4_explored 3
learning_engine_featurewise.action.index_4_exploited 214
learning_engine_featurewise.action.index_5_explored 3
learning_engine_featurewise.action.index_5_exploited 72
learning_engine_featurewise.action.index_10_explored 5
learning_engine_featurewise.action.index_10_exploited 28
learning_engine_featurewise.action.index_11_explored 5
learning_engine_featurewise.action.index_11_exploited 2
learning_engine_featurewise.action.index_12_explored 1
learning_engine_featurewise.action.index_12_exploited 0
learning_engine_featurewise.action.index_22_explored 2
learning_engine_featurewise.action.index_22_exploited 0
learning_engine_featurewise.action.index_23_explored 3
learning_engine_featurewise.action.index_23_exploited 0
learning_engine_featurewise.action.index_30_explored 3
learning_engine_featurewise.action.index_30_exploited 0
learning_engine_featurewise.action.index_32_explored 6
learning_engine_featurewise.action.index_32_exploited 0
learning_engine_featurewise.action.index_-1_explored 1
learning_engine_featurewise.action.index_-1_exploited 0
learning_engine_featurewise.action.index_-3_explored 2
learning_engine_featurewise.action.index_-3_exploited 0
learning_engine_featurewise.action.index_-6_explored 2
learning_engine_featurewise.action.index_-6_exploited 0
learning_engine_featurewise.action.index_0_explored 1
learning_engine_featurewise.action.index_0_exploited 0
learning_engine_featurewise.learn.called 24702
learning_engine_featurewise.learn.su_skip_PC 0
learning_engine_featurewise.learn.su_skip_PC_Delta 0

learning_engine_featurewise.q_value_histogram.bucket_0 0
learning_engine_featurewise.q_value_histogram.bucket_1 0
learning_engine_featurewise.q_value_histogram.bucket_2 0
learning_engine_featurewise.q_value_histogram.bucket_3 0
learning_engine_featurewise.q_value_histogram.bucket_4 8324
learning_engine_featurewise.q_value_histogram.bucket_5 4307
learning_engine_featurewise.q_value_histogram.bucket_6 12955
learning_engine_featurewise.q_value_histogram.bucket_7 0

learning_engine_featurewise.consensus.total 25586
learning_engine_featurewise.consensus.feature_align_PC 21857
learning_engine_featurewise.consensus.feature_align_PC_ratio 0.85
learning_engine_featurewise.consensus.feature_align_PC_Delta 23381
learning_engine_featurewise.consensus.feature_align_PC_Delta_ratio 0.91
learning_engine_featurewise.consensus.feature_align_all 19652
learning_engine_featurewise.consensus.feature_align_all_ratio 0.77

learning_engine_featurewise.feature_PC_min_weight 1000000.00000000
learning_engine_featurewise.feature_PC_max_weight 0.00000000
learning_engine_featurewise.feature_PC_Delta_min_weight 1000000.00000000
learning_engine_featurewise.feature_PC_Delta_max_weight 0.00000000
unique_pcs 2321
unique_pages 445
unique_trigger_pcs 333
total_bitmaps_seen 0
unique_bitmaps_seen 0

scooby_bw_epochs 54678
scooby_bw_level_0 39837
scooby_bw_level_1 9314
scooby_bw_level_2 5201
scooby_bw_level_3 326

scooby_ipc_epochs 0
scooby_ipc_level_0 0
scooby_ipc_level_1 0
scooby_ipc_level_2 0
scooby_ipc_level_3 0

scooby_cache_acc_epochs 13541
scooby_cache_acc_level_0 12292
scooby_cache_acc_level_1 288
scooby_cache_acc_level_2 206
scooby_cache_acc_level_3 139
scooby_cache_acc_level_4 94
scooby_cache_acc_level_5 142
scooby_cache_acc_level_6 69
scooby_cache_acc_level_7 67
scooby_cache_acc_level_8 49
scooby_cache_acc_level_9 195

Channel_0_RQ_row_buffer_hit 17268
Channel_0_RQ_row_buffer_miss 57797
Channel_0_WQ_row_buffer_hit 18080
Channel_0_WQ_row_buffer_miss 56974
Channel_0_WQ_full 0
Channel_0_dbus_congested 138245

avg_congested_cycle 11

DRAM_bw_pochs 54678
DRAM_bw_level_0 39837
DRAM_bw_level_1 9314
DRAM_bw_level_2 5201
DRAM_bw_level_3 326
