Original cmd-> /cluster/home/vlnitu/CA-Lab4-24-vlnitu/Pythia/bin/perceptron-no-multi-no-ship-1core --warmup_instructions=1000000 --simulation_instructions=10000000 --l2c_prefetcher_types=scooby --config=/cluster/home/vlnitu/CA-Lab4-24-vlnitu/Pythia/config/pythia.ini --mail-type=BEGIN,END  -traces /cluster/home/vlnitu/CA-Lab4-24-vlnitu/Pythia/traces/649.fotonik3d_s-10881B.champsimtrace.xz
*************************************************
   ChampSim Multicore Out-of-Order Simulator
   Last compiled: Nov 19 2024 20:10:11
*************************************************
parsing config file: /cluster/home/vlnitu/CA-Lab4-24-vlnitu/Pythia/config/pythia.ini
unable to parse section: , name: mail-type, value: BEGIN,END

trace_0 /cluster/home/vlnitu/CA-Lab4-24-vlnitu/Pythia/traces/649.fotonik3d_s-10881B.champsimtrace.xz
adding L2C_PREFETCHER: Scooby
Initialize SHIP state
warmup_instructions 1000000
simulation_instructions 10000000
champsim_seed 324
measure_ipc 0
measure_ipc_epoch 1000
measure_dram_bw 1
measure_dram_bw_epoch 256
measure_cache_acc 1
measure_cache_acc_epoch 1024
l1d_perfect 0
l2c_perfect 0
llc_perfect 0
l1d_semi_perfect 0
l2c_semi_perfect 0
llc_semi_perfect 0
semi_perfect_cache_page_buffer_size 64

num_cpus 1
cpu_freq 4000
dram_io_freq 2400
page_size 4096
block_size 64
max_read_per_cycle 8
max_fill_per_cycle 1
dram_channels 1
log2_dram_channels 0
dram_ranks 1
dram_banks 8
dram_rows 65536
dram_columns 128
dram_row_size 8
dram_size 4096
dram_pages 1048576

fetch_width 6
decode_width 6
exec_width 4
lq_width 2
sq_width 2
retire_width 4
scheduler_size 128
branch_mispredict_penalty 20
rob_size 256
lq_size 72
sq_size 56
num_instr_destinations_sparc 4
num_instr_destinations 2
num_instr_sources 4

itlb_set 16
itlb_way 8
itlb_rq_size 16
itlb_wq_size 16
itlb_pq_size 0
itlb_mshr_size 8
itlb_latency 1

dtlb_set 16
dtlb_way 4
dtlb_rq_size 16
dtlb_wq_size 16
dtlb_pq_size 0
dtlb_mshr_size 8
dtlb_latency 1

stlb_set 128
stlb_way 12
stlb_rq_size 32
stlb_wq_size 32
stlb_pq_size 0
stlb_mshr_size 16
stlb_latency 8

l1i_size 32
l1i_set 64
l1i_way 8
l1i_rq_size 64
l1i_wq_size 64
l1i_pq_size 8
l1i_mshr_size 8
l1i_latency 1

l1d_size 32
l1d_set 64
l1d_way 8
l1d_rq_size 64
l1d_wq_size 64
l1d_pq_size 8
l1d_mshr_size 16
l1d_latency 4

l2c_size 256
l2c_set 512
l2c_way 8
l2c_rq_size 32
l2c_wq_size 32
l2c_pq_size 32
l2c_mshr_size 32
l2c_latency 10

llc_size 2048
llc_set 2048
llc_way 16
llc_rq_size 32
llc_wq_size 32
llc_pq_size 32
llc_mshr_size 64
llc_latency 20

dram_channel_width 8
dram_wq_size 64
dram_rq_size 64
tRP 15
tRCD 15
tCAS 12.5
dram_dbus_turn_around_time 30
dram_write_high_wm 56
dram_write_low_wm 48
min_dram_writes_per_switch 16
dram_mtps 2400
dram_dbus_return_time 13

scooby_alpha 0.0065088
scooby_gamma 0.556301
scooby_epsilon 0.00182284
scooby_state_num_bits 10
scooby_max_states 1024
scooby_seed 200
scooby_policy EGreedy
scooby_learning_type SARSA
scooby_actions 1,3,4,5,10,11,12,22,23,30,32,-1,-3,-6,0,
scooby_max_actions 15
scooby_pt_size 256
scooby_st_size 64
scooby_max_pcs 5
scooby_max_offsets 5
scooby_max_deltas 5
scooby_reward_none -4
scooby_reward_incorrect -8
scooby_reward_correct_untimely 12
scooby_reward_correct_timely 20
scooby_brain_zero_init 0
scooby_enable_reward_all 0
scooby_enable_track_multiple 0
scooby_enable_reward_out_of_bounds 1
scooby_reward_out_of_bounds -12
scooby_state_type 1
scooby_state_hash_type 11
scooby_access_debug 0
scooby_print_access_debug 0
scooby_print_access_debug_pc deadbeef
scooby_print_access_debug_pc_count 0
scooby_print_trace 0
scooby_enable_state_action_stats 1
scooby_enable_reward_tracker_hit 0
scooby_reward_tracker_hit -2
scooby_enable_featurewise_engine 1
scooby_pref_degree 1
scooby_enable_dyn_degree 1
scooby_max_to_avg_q_thresholds 0.5,1,2,
scooby_dyn_degrees 1,2,4,4,
scooby_multi_deg_select_type 2
scooby_last_pref_offset_conf_thresholds 1,3,8,
scooby_dyn_degrees_type2 1,2,4,6,
scooby_action_tracker_size 2
scooby_high_bw_thresh 4
scooby_enable_hbw_reward 1
scooby_reward_hbw_correct_timely 20
scooby_reward_hbw_correct_untimely 12
scooby_reward_hbw_incorrect -14
scooby_reward_hbw_none -2
scooby_reward_hbw_out_of_bounds -12
scooby_reward_hbw_tracker_hit -2
scooby_last_pref_offset_conf_thresholds_hbw 1,3,8,
scooby_dyn_degrees_type2_hbw 1,2,4,6,

le_enable_trace 0
le_trace_interval 0
le_trace_file_name 
le_trace_state 0
le_enable_score_plot 0
le_plot_file_name 
le_plot_actions 
le_enable_action_trace 0
le_action_trace_interval 0
le_action_trace_name 
le_enable_action_plot 0

le_featurewise_active_features PC, PC_Delta
le_featurewise_num_tilings 3,3,
le_featurewise_num_tiles 128,128,
le_featurewise_hash_types 2,2,
le_featurewise_enable_tiling_offset 1,1,
le_featurewise_max_q_thresh 0.5
le_featurewise_enable_action_fallback 1
le_featurewise_feature_weights 1,1,
le_featurewise_enable_dynamic_weight 0
le_featurewise_weight_gradient 0.001
le_featurewise_disable_adjust_weight_all_features_align 1
le_featurewise_selective_update 0
le_featurewise_pooling_type 2
le_featurewise_enable_dyn_action_fallback 1
le_featurewise_bw_acc_check_level 1
le_featurewise_acc_thresh 2
le_featurewise_enable_trace 0
le_featurewise_trace_feature_type 0
le_featurewise_trace_feature 
le_featurewise_trace_interval 0
le_featurewise_trace_record_count 0
le_featurewise_trace_file_name 
le_featurewise_enable_score_plot 0
le_featurewise_plot_actions 
le_featurewise_plot_file_name 


Heartbeat CPU  0 instructions:    1000000 cycles:     838398 heartbeat IPC: 1.19275 cumulative IPC: 1.19275 (Simulation time: 0 hr 0 min 3 sec) 

Warmup complete CPU  0 instructions:    1000004 cycles:     838399 (Simulation time: 0 hr 0 min 3 sec) 

Heartbeat CPU  0 instructions:    2000003 cycles:    2546257 heartbeat IPC: 0.58553 cumulative IPC: 0.58553 (Simulation time: 0 hr 0 min 5 sec) 
Heartbeat CPU  0 instructions:    3000002 cycles:    4374041 heartbeat IPC: 0.54711 cumulative IPC: 0.56567 (Simulation time: 0 hr 0 min 8 sec) 
Heartbeat CPU  0 instructions:    4000000 cycles:    6193575 heartbeat IPC: 0.54959 cumulative IPC: 0.56020 (Simulation time: 0 hr 0 min 10 sec) 
Heartbeat CPU  0 instructions:    5000001 cycles:    8047686 heartbeat IPC: 0.53934 cumulative IPC: 0.55484 (Simulation time: 0 hr 0 min 13 sec) 
Heartbeat CPU  0 instructions:    6000002 cycles:    9917296 heartbeat IPC: 0.53487 cumulative IPC: 0.55073 (Simulation time: 0 hr 0 min 16 sec) 
Heartbeat CPU  0 instructions:    7000001 cycles:   11766698 heartbeat IPC: 0.54071 cumulative IPC: 0.54903 (Simulation time: 0 hr 0 min 19 sec) 
Heartbeat CPU  0 instructions:    8000000 cycles:   13597173 heartbeat IPC: 0.54631 cumulative IPC: 0.54864 (Simulation time: 0 hr 0 min 21 sec) 
Heartbeat CPU  0 instructions:    9000001 cycles:   15422116 heartbeat IPC: 0.54796 cumulative IPC: 0.54856 (Simulation time: 0 hr 0 min 24 sec) 
Heartbeat CPU  0 instructions:   10000001 cycles:   17286650 heartbeat IPC: 0.53633 cumulative IPC: 0.54717 (Simulation time: 0 hr 0 min 27 sec) 
Heartbeat CPU  0 instructions:   11000000 cycles:   19120425 heartbeat IPC: 0.54532 cumulative IPC: 0.54699 (Simulation time: 0 hr 0 min 29 sec) 
Finished CPU 0 instructions: 10000000 cycles: 18282027 cumulative IPC: 0.54699 (Simulation time: 0 hr 0 min 29 sec) 

ChampSim completed all CPUs

[ROI Statistics]
Core_0_instructions 10000000
Core_0_cycles 18282027
Core_0_IPC 0.54699

Core_0_branch_prediction_accuracy 99.99334
Core_0_branch_MPKI 0.00080
Core_0_average_ROB_occupancy_at_mispredict 253.25000

Core_0_L1D_total_access 5353769
Core_0_L1D_total_hit 5161366
Core_0_L1D_total_miss 192403
Core_0_L1D_loads 4712641
Core_0_L1D_load_hit 4520238
Core_0_L1D_load_miss 192403
Core_0_L1D_RFOs 641128
Core_0_L1D_RFO_hit 641128
Core_0_L1D_RFO_miss 0
Core_0_L1D_prefetches 0
Core_0_L1D_prefetch_hit 0
Core_0_L1D_prefetch_miss 0
Core_0_L1D_writebacks 0
Core_0_L1D_writeback_hit 0
Core_0_L1D_writeback_miss 0
Core_0_L1D_prefetch_requested 0
Core_0_L1D_prefetch_dropped 0
Core_0_L1D_prefetch_issued 0
Core_0_L1D_prefetch_filled 0
Core_0_L1D_prefetch_useful 0
Core_0_L1D_prefetch_useless 0
Core_0_L1D_prefetch_late 0
Core_0_L1D_average_miss_latency 103.75448

Core_0_L1D_rq_access 6379078
Core_0_L1D_rq_forward 0
Core_0_L1D_rq_merged 1642874
Core_0_L1D_rq_to_cache 4736204
Core_0_L1D_rq_full 0

Core_0_L1D_wq_access 641129
Core_0_L1D_wq_forward 0
Core_0_L1D_wq_merged 0
Core_0_L1D_wq_to_cache 641129
Core_0_L1D_wq_full 0

Core_0_L1D_pq_access 0
Core_0_L1D_pq_forward 0
Core_0_L1D_pq_merged 0
Core_0_L1D_pq_to_cache 0
Core_0_L1D_pq_full 0

Core_0_L1D_acc_epochs 15389
Core_0_L1D_acc_level_0 15389
Core_0_L1D_acc_level_1 0
Core_0_L1D_acc_level_2 0
Core_0_L1D_acc_level_3 0
Core_0_L1D_acc_level_4 0
Core_0_L1D_acc_level_5 0
Core_0_L1D_acc_level_6 0
Core_0_L1D_acc_level_7 0
Core_0_L1D_acc_level_8 0
Core_0_L1D_acc_level_9 0

Core_0_L1I_total_access 2884166
Core_0_L1I_total_hit 2884166
Core_0_L1I_total_miss 0
Core_0_L1I_loads 2884166
Core_0_L1I_load_hit 2884166
Core_0_L1I_load_miss 0
Core_0_L1I_RFOs 0
Core_0_L1I_RFO_hit 0
Core_0_L1I_RFO_miss 0
Core_0_L1I_prefetches 0
Core_0_L1I_prefetch_hit 0
Core_0_L1I_prefetch_miss 0
Core_0_L1I_writebacks 0
Core_0_L1I_writeback_hit 0
Core_0_L1I_writeback_miss 0
Core_0_L1I_prefetch_requested 0
Core_0_L1I_prefetch_dropped 0
Core_0_L1I_prefetch_issued 0
Core_0_L1I_prefetch_filled 0
Core_0_L1I_prefetch_useful 0
Core_0_L1I_prefetch_useless 0
Core_0_L1I_prefetch_late 0
Core_0_L1I_average_miss_latency -nan

Core_0_L1I_rq_access 9999996
Core_0_L1I_rq_forward 0
Core_0_L1I_rq_merged 7115830
Core_0_L1I_rq_to_cache 2884166
Core_0_L1I_rq_full 0

Core_0_L1I_wq_access 0
Core_0_L1I_wq_forward 0
Core_0_L1I_wq_merged 0
Core_0_L1I_wq_to_cache 0
Core_0_L1I_wq_full 0

Core_0_L1I_pq_access 0
Core_0_L1I_pq_forward 0
Core_0_L1I_pq_merged 0
Core_0_L1I_pq_to_cache 0
Core_0_L1I_pq_full 0

Core_0_L1I_acc_epochs 15389
Core_0_L1I_acc_level_0 15389
Core_0_L1I_acc_level_1 0
Core_0_L1I_acc_level_2 0
Core_0_L1I_acc_level_3 0
Core_0_L1I_acc_level_4 0
Core_0_L1I_acc_level_5 0
Core_0_L1I_acc_level_6 0
Core_0_L1I_acc_level_7 0
Core_0_L1I_acc_level_8 0
Core_0_L1I_acc_level_9 0

Core_0_L2C_total_access 692944
Core_0_L2C_total_hit 413120
Core_0_L2C_total_miss 279824
Core_0_L2C_loads 192402
Core_0_L2C_load_hit 123153
Core_0_L2C_load_miss 69249
Core_0_L2C_RFOs 0
Core_0_L2C_RFO_hit 0
Core_0_L2C_RFO_miss 0
Core_0_L2C_prefetches 403391
Core_0_L2C_prefetch_hit 192817
Core_0_L2C_prefetch_miss 210574
Core_0_L2C_writebacks 97151
Core_0_L2C_writeback_hit 97150
Core_0_L2C_writeback_miss 1
Core_0_L2C_prefetch_requested 448684
Core_0_L2C_prefetch_dropped 0
Core_0_L2C_prefetch_issued 448684
Core_0_L2C_prefetch_filled 231924
Core_0_L2C_prefetch_useful 135621
Core_0_L2C_prefetch_useless 95022
Core_0_L2C_prefetch_late 2380
Core_0_L2C_average_miss_latency 226.12881

Core_0_L2C_rq_access 192402
Core_0_L2C_rq_forward 0
Core_0_L2C_rq_merged 0
Core_0_L2C_rq_to_cache 192402
Core_0_L2C_rq_full 0

Core_0_L2C_wq_access 97151
Core_0_L2C_wq_forward 0
Core_0_L2C_wq_merged 0
Core_0_L2C_wq_to_cache 97151
Core_0_L2C_wq_full 0

Core_0_L2C_pq_access 448684
Core_0_L2C_pq_forward 0
Core_0_L2C_pq_merged 442
Core_0_L2C_pq_to_cache 448242
Core_0_L2C_pq_full 0

Core_0_L2C_acc_epochs 15389
Core_0_L2C_acc_level_0 1
Core_0_L2C_acc_level_1 1
Core_0_L2C_acc_level_2 5
Core_0_L2C_acc_level_3 170
Core_0_L2C_acc_level_4 1939
Core_0_L2C_acc_level_5 5599
Core_0_L2C_acc_level_6 4588
Core_0_L2C_acc_level_7 1925
Core_0_L2C_acc_level_8 712
Core_0_L2C_acc_level_9 449

Core_0_LLC_total_access 377008
Core_0_LLC_total_hit 34664
Core_0_LLC_total_miss 342344
Core_0_LLC_loads 66869
Core_0_LLC_load_hit 8119
Core_0_LLC_load_miss 58750
Core_0_LLC_RFOs 0
Core_0_LLC_RFO_hit 0
Core_0_LLC_RFO_miss 0
Core_0_LLC_prefetches 212954
Core_0_LLC_prefetch_hit 20149
Core_0_LLC_prefetch_miss 192805
Core_0_LLC_writebacks 97185
Core_0_LLC_writeback_hit 6396
Core_0_LLC_writeback_miss 90789
Core_0_LLC_prefetch_requested 0
Core_0_LLC_prefetch_dropped 0
Core_0_LLC_prefetch_issued 0
Core_0_LLC_prefetch_filled 214144
Core_0_LLC_prefetch_useful 1340
Core_0_LLC_prefetch_useless 200623
Core_0_LLC_prefetch_late 0
Core_0_LLC_average_miss_latency 155.10244

Core_0_LLC_rq_access 66869
Core_0_LLC_rq_forward 0
Core_0_LLC_rq_merged 0
Core_0_LLC_rq_to_cache 66869
Core_0_LLC_rq_full 0

Core_0_LLC_wq_access 97185
Core_0_LLC_wq_forward 0
Core_0_LLC_wq_merged 0
Core_0_LLC_wq_to_cache 97185
Core_0_LLC_wq_full 0

Core_0_LLC_pq_access 234305
Core_0_LLC_pq_forward 0
Core_0_LLC_pq_merged 0
Core_0_LLC_pq_to_cache 234305
Core_0_LLC_pq_full 0

Core_0_LLC_acc_epochs 18673
Core_0_LLC_acc_level_0 18611
Core_0_LLC_acc_level_1 55
Core_0_LLC_acc_level_2 6
Core_0_LLC_acc_level_3 0
Core_0_LLC_acc_level_4 0
Core_0_LLC_acc_level_5 1
Core_0_LLC_acc_level_6 0
Core_0_LLC_acc_level_7 0
Core_0_LLC_acc_level_8 0
Core_0_LLC_acc_level_9 0

Core_0_major_page_fault 0
Core_0_minor_page_fault 29134

scooby_st_lookup 211712
scooby_st_hit 174355
scooby_st_evict 37293
scooby_st_insert 37357
scooby_st_streaming 0

scooby_predict_called 211712
scooby_predict_out_of_bounds 9134
scooby_predict_action_1 196276
scooby_predict_issue_action_1 194710
scooby_predict_hit_action_1 1566
scooby_predict_out_of_bounds_action_1 3102
scooby_predict_action_3 61
scooby_predict_issue_action_3 60
scooby_predict_hit_action_3 1
scooby_predict_out_of_bounds_action_3 1
scooby_predict_action_4 38
scooby_predict_issue_action_4 38
scooby_predict_hit_action_4 0
scooby_predict_out_of_bounds_action_4 2
scooby_predict_action_5 41
scooby_predict_issue_action_5 41
scooby_predict_hit_action_5 0
scooby_predict_out_of_bounds_action_5 1
scooby_predict_action_10 36
scooby_predict_issue_action_10 36
scooby_predict_hit_action_10 0
scooby_predict_out_of_bounds_action_10 15
scooby_predict_action_11 42
scooby_predict_issue_action_11 42
scooby_predict_hit_action_11 0
scooby_predict_out_of_bounds_action_11 3
scooby_predict_action_12 27
scooby_predict_issue_action_12 27
scooby_predict_hit_action_12 0
scooby_predict_out_of_bounds_action_12 12
scooby_predict_action_22 32
scooby_predict_issue_action_22 32
scooby_predict_hit_action_22 0
scooby_predict_out_of_bounds_action_22 18
scooby_predict_action_23 24
scooby_predict_issue_action_23 24
scooby_predict_hit_action_23 0
scooby_predict_out_of_bounds_action_23 18
scooby_predict_action_30 27
scooby_predict_issue_action_30 27
scooby_predict_hit_action_30 0
scooby_predict_out_of_bounds_action_30 19
scooby_predict_action_32 5873
scooby_predict_issue_action_32 5873
scooby_predict_hit_action_32 0
scooby_predict_out_of_bounds_action_32 5942
scooby_predict_action_-1 28
scooby_predict_issue_action_-1 21
scooby_predict_hit_action_-1 7
scooby_predict_out_of_bounds_action_-1 0
scooby_predict_action_-3 21
scooby_predict_issue_action_-3 18
scooby_predict_hit_action_-3 3
scooby_predict_out_of_bounds_action_-3 0
scooby_predict_action_-6 22
scooby_predict_issue_action_-6 18
scooby_predict_hit_action_-6 4
scooby_predict_out_of_bounds_action_-6 1
scooby_predict_action_0 30
scooby_predict_issue_action_0 0
scooby_predict_hit_action_0 0
scooby_predict_out_of_bounds_action_0 0
scooby_predict_multi_deg_called 89632
scooby_predict_predicted 448684
scooby_predict_multi_deg 247717
scooby_predict_multi_deg_2 87358
scooby_predict_multi_deg_3 44881
scooby_predict_multi_deg_4 44015
scooby_predict_multi_deg_5 36095
scooby_predict_multi_deg_6 35368
scooby_predict_multi_deg_7 0
scooby_predict_multi_deg_8 0
scooby_predict_multi_deg_9 0
scooby_predict_multi_deg_10 0
scooby_predict_multi_deg_11 0
scooby_predict_multi_deg_12 0
scooby_predict_multi_deg_13 0
scooby_predict_multi_deg_14 0
scooby_predict_multi_deg_15 0
scooby_predict_multi_deg_16 0

scooby_selected_deg_1 111335
scooby_selected_deg_2 43032
scooby_selected_deg_3 0
scooby_selected_deg_4 7599
scooby_selected_deg_5 0
scooby_selected_deg_6 39001
scooby_selected_deg_7 0
scooby_selected_deg_8 0
scooby_selected_deg_9 0
scooby_selected_deg_10 0
scooby_selected_deg_11 0
scooby_selected_deg_12 0
scooby_selected_deg_13 0
scooby_selected_deg_14 0
scooby_selected_deg_15 0
scooby_selected_deg_16 0

scooby_state_455d75|0|0 345,0,0,0,0,0,0,0,0,0,0,0,0,0,0,345,
scooby_state_455c8d|0|0 344,1,0,0,0,0,0,0,0,0,0,0,0,0,0,345,
scooby_state_455c73|0|0 326,0,0,0,0,0,1,0,0,0,0,0,0,0,0,327,
scooby_state_455cc3|0|0 327,0,0,0,0,0,0,0,0,0,0,0,0,0,0,327,
scooby_state_455e34|0|0 325,0,0,0,0,0,0,0,1,0,0,0,0,0,0,326,
scooby_state_455d47|0|0 276,0,0,0,0,0,0,0,0,0,0,0,0,0,0,276,
scooby_state_455de3|0|0 275,0,0,0,0,0,0,0,0,0,0,0,0,0,0,275,
scooby_state_455c60|17|1 224,0,0,0,0,0,0,0,0,0,0,0,0,0,0,224,
scooby_state_455dd1|35|1 224,0,0,0,0,0,0,0,0,0,0,0,0,0,0,224,
scooby_state_455d1a|13|1 224,0,0,0,0,0,0,0,0,0,0,0,0,0,0,224,
scooby_state_455d1a|44|1 224,0,0,0,0,0,0,0,0,0,0,0,0,0,0,224,
scooby_state_455d1a|19|1 224,0,0,0,0,0,0,0,0,0,0,0,0,0,0,224,
scooby_state_455d1a|11|1 224,0,0,0,0,0,0,0,0,0,0,0,0,0,0,224,
scooby_state_455c60|27|1 224,0,0,0,0,0,0,0,0,0,0,0,0,0,0,224,
scooby_state_455dd1|27|1 224,0,0,0,0,0,0,0,0,0,0,0,0,0,0,224,
scooby_state_455d1a|54|1 224,0,0,0,0,0,0,0,0,0,0,0,0,0,0,224,
scooby_state_455d1a|18|1 224,0,0,0,0,0,0,0,0,0,0,0,0,0,0,224,
scooby_state_455dd1|48|1 224,0,0,0,0,0,0,0,0,0,0,0,0,0,0,224,
scooby_state_455c60|28|1 224,0,0,0,0,0,0,0,0,0,0,0,0,0,0,224,
scooby_state_455d1a|28|1 224,0,0,0,0,0,0,0,0,0,0,0,0,0,0,224,
scooby_state_455c60|18|1 224,0,0,0,0,0,0,0,0,0,0,0,0,0,0,224,
scooby_state_455dd1|53|1 221,1,0,1,0,0,0,0,0,1,0,0,0,0,0,224,
scooby_state_455c60|49|1 222,1,0,0,1,0,0,0,0,0,0,0,0,0,0,224,
scooby_state_455d1a|49|1 223,0,0,0,0,0,0,0,1,0,0,0,0,0,0,224,
scooby_state_455c60|30|1 224,0,0,0,0,0,0,0,0,0,0,0,0,0,0,224,
scooby_state_455dd1|25|1 224,0,0,0,0,0,0,0,0,0,0,0,0,0,0,224,
scooby_state_455c60|46|1 222,0,0,0,0,1,0,1,0,0,0,0,0,0,0,224,
scooby_state_455c60|24|1 224,0,0,0,0,0,0,0,0,0,0,0,0,0,0,224,
scooby_state_455d1a|24|1 224,0,0,0,0,0,0,0,0,0,0,0,0,0,0,224,
scooby_state_455d1a|56|1 222,0,0,0,0,0,0,1,1,0,0,0,0,0,0,224,
scooby_state_455dd1|13|1 224,0,0,0,0,0,0,0,0,0,0,0,0,0,0,224,
scooby_state_455d1a|46|1 224,0,0,0,0,0,0,0,0,0,0,0,0,0,0,224,
scooby_state_455d1a|23|1 224,0,0,0,0,0,0,0,0,0,0,0,0,0,0,224,
scooby_state_455d1a|48|1 224,0,0,0,0,0,0,0,0,0,0,0,0,0,0,224,
scooby_state_455d1a|40|1 223,0,0,0,0,0,1,0,0,0,0,0,0,0,0,224,
scooby_state_455c60|25|1 223,0,0,0,0,0,0,1,0,0,0,0,0,0,0,224,
scooby_state_455d1a|31|1 223,0,0,0,0,0,0,0,0,0,0,1,0,0,0,224,
scooby_state_455d1a|21|1 224,0,0,0,0,0,0,0,0,0,0,0,0,0,0,224,
scooby_state_455d1a|50|1 224,0,0,0,0,0,0,0,0,0,0,0,0,0,0,224,
scooby_state_455c60|13|1 223,0,1,0,0,0,0,0,0,0,0,0,0,0,0,224,
scooby_state_455d1a|12|1 222,0,0,0,1,1,0,0,0,0,0,0,0,0,0,224,
scooby_state_455dd1|46|1 223,0,0,1,0,0,0,0,0,0,0,0,0,0,0,224,
scooby_state_455c60|16|1 224,0,0,0,0,0,0,0,0,0,0,0,0,0,0,224,
scooby_state_455dd1|41|1 223,0,0,0,0,0,0,0,0,1,0,0,0,0,0,224,
scooby_state_455dd1|33|1 224,0,0,0,0,0,0,0,0,0,0,0,0,0,0,224,
scooby_state_455c60|47|1 224,0,0,0,0,0,0,0,0,0,0,0,0,0,0,224,
scooby_state_455dd1|29|1 224,0,0,0,0,0,0,0,0,0,0,0,0,0,0,224,
scooby_state_455d1a|34|1 224,0,0,0,0,0,0,0,0,0,0,0,0,0,0,224,
scooby_state_455d1a|51|1 224,0,0,0,0,0,0,0,0,0,0,0,0,0,0,224,
scooby_state_455c60|22|1 224,0,0,0,0,0,0,0,0,0,0,0,0,0,0,224,
scooby_state_455dd1|22|1 224,0,0,0,0,0,0,0,0,0,0,0,0,0,0,224,
scooby_state_455dd1|24|1 224,0,0,0,0,0,0,0,0,0,0,0,0,0,0,224,
scooby_state_455d1a|57|1 224,0,0,0,0,0,0,0,0,0,0,0,0,0,0,224,
scooby_state_455c60|57|1 222,0,0,0,0,0,0,0,1,0,0,0,0,0,1,224,
scooby_state_455c60|53|1 223,0,0,0,0,0,0,0,1,0,0,0,0,0,0,224,
scooby_state_455c60|39|1 224,0,0,0,0,0,0,0,0,0,0,0,0,0,0,224,
scooby_state_455dd1|39|1 224,0,0,0,0,0,0,0,0,0,0,0,0,0,0,224,
scooby_state_455dd1|56|1 223,0,0,0,0,0,0,0,1,0,0,0,0,0,0,224,
scooby_state_455c60|44|1 223,0,0,0,0,0,0,0,0,0,0,0,0,1,0,224,
scooby_state_455c60|31|1 224,0,0,0,0,0,0,0,0,0,0,0,0,0,0,224,
scooby_state_455c60|34|1 224,0,0,0,0,0,0,0,0,0,0,0,0,0,0,224,
scooby_state_455c60|48|1 223,0,0,0,0,0,0,0,0,1,0,0,0,0,0,224,
scooby_state_455d1a|29|1 224,0,0,0,0,0,0,0,0,0,0,0,0,0,0,224,
scooby_state_455dd1|40|1 224,0,0,0,0,0,0,0,0,0,0,0,0,0,0,224,
scooby_state_455d1a|55|1 223,0,0,0,0,1,0,0,0,0,0,0,0,0,0,224,
scooby_state_455dd1|8|1 223,0,0,1,0,0,0,0,0,0,0,0,0,0,0,224,
scooby_state_455c60|55|1 223,0,0,1,0,0,0,0,0,0,0,0,0,0,0,224,
scooby_state_455dd1|21|1 223,0,0,1,0,0,0,0,0,0,0,0,0,0,0,224,
scooby_state_455d1a|33|1 222,0,0,0,0,0,0,0,0,1,0,1,0,0,0,224,
scooby_state_455d1a|30|1 224,0,0,0,0,0,0,0,0,0,0,0,0,0,0,224,
scooby_state_455dd1|52|1 224,0,0,0,0,0,0,0,0,0,0,0,0,0,0,224,
scooby_state_455dd1|49|1 224,0,0,0,0,0,0,0,0,0,0,0,0,0,0,224,
scooby_state_455c60|26|1 224,0,0,0,0,0,0,0,0,0,0,0,0,0,0,224,
scooby_state_455d1a|38|1 224,0,0,0,0,0,0,0,0,0,0,0,0,0,0,224,
scooby_state_455c60|36|1 222,0,0,0,0,0,0,0,1,0,1,0,0,0,0,224,
scooby_state_455d1a|39|1 223,0,0,0,1,0,0,0,0,0,0,0,0,0,0,224,
scooby_state_455dd1|30|1 224,0,0,0,0,0,0,0,0,0,0,0,0,0,0,224,
scooby_state_455c60|50|1 224,0,0,0,0,0,0,0,0,0,0,0,0,0,0,224,
scooby_state_455dd1|50|1 224,0,0,0,0,0,0,0,0,0,0,0,0,0,0,224,
scooby_state_455c60|9|1 224,0,0,0,0,0,0,0,0,0,0,0,0,0,0,224,
scooby_state_455c60|40|1 224,0,0,0,0,0,0,0,0,0,0,0,0,0,0,224,
scooby_state_455d1a|17|1 224,0,0,0,0,0,0,0,0,0,0,0,0,0,0,224,
scooby_state_455dd1|36|1 224,0,0,0,0,0,0,0,0,0,0,0,0,0,0,224,
scooby_state_455c60|52|1 224,0,0,0,0,0,0,0,0,0,0,0,0,0,0,224,
scooby_state_455c60|12|1 224,0,0,0,0,0,0,0,0,0,0,0,0,0,0,224,
scooby_state_455c60|51|1 224,0,0,0,0,0,0,0,0,0,0,0,0,0,0,224,
scooby_state_455d1a|36|1 224,0,0,0,0,0,0,0,0,0,0,0,0,0,0,224,
scooby_state_455c60|54|1 223,0,0,0,0,0,0,0,0,0,0,0,0,1,0,224,
scooby_state_455dd1|31|1 224,0,0,0,0,0,0,0,0,0,0,0,0,0,0,224,
scooby_state_455d1a|35|1 221,1,0,0,1,0,0,0,1,0,0,0,0,0,0,224,
scooby_state_455dd1|9|1 224,0,0,0,0,0,0,0,0,0,0,0,0,0,0,224,
scooby_state_455c60|42|1 224,0,0,0,0,0,0,0,0,0,0,0,0,0,0,224,
scooby_state_455c60|35|1 223,0,0,0,0,0,0,0,0,0,1,0,0,0,0,224,
scooby_state_455dd1|43|1 224,0,0,0,0,0,0,0,0,0,0,0,0,0,0,224,
scooby_state_455c60|10|1 224,0,0,0,0,0,0,0,0,0,0,0,0,0,0,224,
scooby_state_455dd1|18|1 224,0,0,0,0,0,0,0,0,0,0,0,0,0,0,224,
scooby_state_455c60|32|1 224,0,0,0,0,0,0,0,0,0,0,0,0,0,0,224,
scooby_state_455dd1|26|1 224,0,0,0,0,0,0,0,0,0,0,0,0,0,0,224,
scooby_state_455c60|33|1 224,0,0,0,0,0,0,0,0,0,0,0,0,0,0,224,
scooby_state_455c60|14|1 224,0,0,0,0,0,0,0,0,0,0,0,0,0,0,224,
scooby_state_455c60|11|1 223,0,0,0,0,0,0,0,0,0,0,1,0,0,0,224,
scooby_state_455dd1|51|1 224,0,0,0,0,0,0,0,0,0,0,0,0,0,0,224,
scooby_state_455c60|21|1 224,0,0,0,0,0,0,0,0,0,0,0,0,0,0,224,
scooby_state_455d1a|22|1 224,0,0,0,0,0,0,0,0,0,0,0,0,0,0,224,
scooby_state_455d1a|25|1 224,0,0,0,0,0,0,0,0,0,0,0,0,0,0,224,
scooby_state_455dd1|12|1 224,0,0,0,0,0,0,0,0,0,0,0,0,0,0,224,
scooby_state_455d1a|42|1 224,0,0,0,0,0,0,0,0,0,0,0,0,0,0,224,
scooby_state_455dd1|42|1 224,0,0,0,0,0,0,0,0,0,0,0,0,0,0,224,
scooby_state_455dd1|47|1 224,0,0,0,0,0,0,0,0,0,0,0,0,0,0,224,
scooby_state_455d1a|14|1 224,0,0,0,0,0,0,0,0,0,0,0,0,0,0,224,
scooby_state_455d1a|26|1 223,0,1,0,0,0,0,0,0,0,0,0,0,0,0,224,
scooby_state_455c60|43|1 222,0,0,1,0,0,0,0,0,0,0,1,0,0,0,224,
scooby_state_455d1a|43|1 224,0,0,0,0,0,0,0,0,0,0,0,0,0,0,224,
scooby_state_455dd1|11|1 224,0,0,0,0,0,0,0,0,0,0,0,0,0,0,224,
scooby_state_455dd1|19|1 222,0,0,0,0,1,0,0,0,0,1,0,0,0,0,224,
scooby_state_455c60|38|1 224,0,0,0,0,0,0,0,0,0,0,0,0,0,0,224,
scooby_state_455c60|37|1 223,0,0,0,0,0,0,0,0,0,1,0,0,0,0,224,
scooby_state_455dd1|32|1 224,0,0,0,0,0,0,0,0,0,0,0,0,0,0,224,
scooby_state_455d1a|47|1 223,0,0,0,0,1,0,0,0,0,0,0,0,0,0,224,
scooby_state_455c60|20|1 224,0,0,0,0,0,0,0,0,0,0,0,0,0,0,224,
scooby_state_455dd1|10|1 224,0,0,0,0,0,0,0,0,0,0,0,0,0,0,224,
scooby_state_455d1a|20|1 221,1,0,0,1,0,0,0,0,0,0,0,1,0,0,224,
scooby_state_455dd1|28|1 224,0,0,0,0,0,0,0,0,0,0,0,0,0,0,224,
scooby_state_455c60|56|1 224,0,0,0,0,0,0,0,0,0,0,0,0,0,0,224,
scooby_state_455dd1|16|1 224,0,0,0,0,0,0,0,0,0,0,0,0,0,0,224,
scooby_state_455d1a|9|1 222,0,1,0,1,0,0,0,0,0,0,0,0,0,0,224,
scooby_state_455dd1|17|1 224,0,0,0,0,0,0,0,0,0,0,0,0,0,0,224,
scooby_state_455dd1|38|1 223,0,0,0,0,0,0,0,0,0,0,0,0,0,1,224,
scooby_state_455c60|29|1 224,0,0,0,0,0,0,0,0,0,0,0,0,0,0,224,
scooby_state_455d1a|45|1 224,0,0,0,0,0,0,0,0,0,0,0,0,0,0,224,
scooby_state_455dd1|14|1 224,0,0,0,0,0,0,0,0,0,0,0,0,0,0,224,
scooby_state_455c60|41|1 224,0,0,0,0,0,0,0,0,0,0,0,0,0,0,224,
scooby_state_455d1a|41|1 224,0,0,0,0,0,0,0,0,0,0,0,0,0,0,224,
scooby_state_455d1a|16|1 224,0,0,0,0,0,0,0,0,0,0,0,0,0,0,224,
scooby_state_455dd1|20|1 223,0,1,0,0,0,0,0,0,0,0,0,0,0,0,224,
scooby_state_455dd1|15|1 223,0,0,0,0,1,0,0,0,0,0,0,0,0,0,224,
scooby_state_455dd1|55|1 224,0,0,0,0,0,0,0,0,0,0,0,0,0,0,224,
scooby_state_455c60|23|1 224,0,0,0,0,0,0,0,0,0,0,0,0,0,0,224,
scooby_state_455dd1|37|1 224,0,0,0,0,0,0,0,0,0,0,0,0,0,0,224,
scooby_state_455c60|15|1 224,0,0,0,0,0,0,0,0,0,0,0,0,0,0,224,
scooby_state_455d1a|53|1 224,0,0,0,0,0,0,0,0,0,0,0,0,0,0,224,
scooby_state_455dd1|23|1 224,0,0,0,0,0,0,0,0,0,0,0,0,0,0,224,
scooby_state_455d1a|52|1 223,0,0,0,0,0,0,0,1,0,0,0,0,0,0,224,
scooby_state_455dd1|34|1 224,0,0,0,0,0,0,0,0,0,0,0,0,0,0,224,
scooby_state_455c60|45|1 224,0,0,0,0,0,0,0,0,0,0,0,0,0,0,224,
scooby_state_455d1a|10|1 223,0,0,0,0,0,0,0,0,0,0,1,0,0,0,224,
scooby_state_455dd1|44|1 224,0,0,0,0,0,0,0,0,0,0,0,0,0,0,224,
scooby_state_455d1a|15|1 224,0,0,0,0,0,0,0,0,0,0,0,0,0,0,224,
scooby_state_455d1a|37|1 223,0,0,0,0,0,0,0,0,0,0,0,1,0,0,224,
scooby_state_455d1a|27|1 224,0,0,0,0,0,0,0,0,0,0,0,0,0,0,224,
scooby_state_455d1a|32|1 224,0,0,0,0,0,0,0,0,0,0,0,0,0,0,224,
scooby_state_455d1a|8|1 224,0,0,0,0,0,0,0,0,0,0,0,0,0,0,224,
scooby_state_455dd1|45|1 224,0,0,0,0,0,0,0,0,0,0,0,0,0,0,224,
scooby_state_455dd1|54|1 223,0,0,0,0,0,0,0,0,1,0,0,0,0,0,224,
scooby_state_455dd1|57|1 224,0,0,0,0,0,0,0,0,0,0,0,0,0,0,224,
scooby_state_455c60|19|1 223,0,0,0,0,0,0,0,0,1,0,0,0,0,0,224,
scooby_state_455d1a|3|1 223,0,0,0,0,0,0,0,0,0,0,0,0,0,0,223,
scooby_state_455c60|60|1 223,0,0,0,0,0,0,0,0,0,0,0,0,0,0,223,
scooby_state_455dd1|60|1 223,0,0,0,0,0,0,0,0,0,0,0,0,0,0,223,
scooby_state_455c60|63|1 223,0,0,0,0,0,0,0,0,0,0,0,0,0,0,223,
scooby_state_455d1a|59|1 222,0,0,0,0,0,0,1,0,0,0,0,0,0,0,223,
scooby_state_455d1a|7|1 222,0,0,0,0,0,0,1,0,0,0,0,0,0,0,223,
scooby_state_455d1a|2|1 222,0,0,0,0,0,0,0,0,0,0,0,0,1,0,223,
scooby_state_455c60|61|1 223,0,0,0,0,0,0,0,0,0,0,0,0,0,0,223,
scooby_state_455dd1|61|1 223,0,0,0,0,0,0,0,0,0,0,0,0,0,0,223,
scooby_state_455dd1|58|1 221,0,0,0,0,0,1,0,0,0,0,0,0,1,0,223,
scooby_state_455c60|6|1 222,0,0,0,0,0,0,0,0,0,0,0,0,1,0,223,
scooby_state_455dd1|5|1 222,0,0,0,0,0,0,0,1,0,0,0,0,0,0,223,
scooby_state_455c60|59|1 223,0,0,0,0,0,0,0,0,0,0,0,0,0,0,223,
scooby_state_455c60|4|1 223,0,0,0,0,0,0,0,0,0,0,0,0,0,0,223,
scooby_state_455d1a|60|1 221,0,0,0,0,0,0,1,0,1,0,0,0,0,0,223,
scooby_state_455c60|8|1 222,0,0,0,0,0,0,0,0,0,0,0,0,1,0,223,
scooby_state_455dd1|62|1 223,0,0,0,0,0,0,0,0,0,0,0,0,0,0,223,
scooby_state_455c60|7|1 223,0,0,0,0,0,0,0,0,0,0,0,0,0,0,223,
scooby_state_455d1a|58|1 222,0,0,0,0,0,0,0,0,1,0,0,0,0,0,223,
scooby_state_455c60|58|1 222,0,0,0,0,0,0,0,0,0,0,0,1,0,0,223,
scooby_state_455d1a|62|1 222,0,1,0,0,0,0,0,0,0,0,0,0,0,0,223,
scooby_state_455dd1|2|1 223,0,0,0,0,0,0,0,0,0,0,0,0,0,0,223,
scooby_state_455dd1|0|0 221,1,0,0,0,0,0,1,0,0,0,0,0,0,0,223,
scooby_state_455c60|2|1 223,0,0,0,0,0,0,0,0,0,0,0,0,0,0,223,
scooby_state_455dd1|1|1 223,0,0,0,0,0,0,0,0,0,0,0,0,0,0,223,
scooby_state_455c60|3|1 221,0,1,1,0,0,0,0,0,0,0,0,0,0,0,223,
scooby_state_455c60|1|1 222,0,1,0,0,0,0,0,0,0,0,0,0,0,0,223,
scooby_state_455d1a|0|0 222,0,0,0,0,1,0,0,0,0,0,0,0,0,0,223,
scooby_state_455dd1|59|1 223,0,0,0,0,0,0,0,0,0,0,0,0,0,0,223,
scooby_state_455c60|0|0 223,0,0,0,0,0,0,0,0,0,0,0,0,0,0,223,
scooby_state_455d1a|4|1 223,0,0,0,0,0,0,0,0,0,0,0,0,0,0,223,
scooby_state_455d1a|1|1 223,0,0,0,0,0,0,0,0,0,0,0,0,0,0,223,
scooby_state_455dd1|4|1 223,0,0,0,0,0,0,0,0,0,0,0,0,0,0,223,
scooby_state_455d1a|63|1 223,0,0,0,0,0,0,0,0,0,0,0,0,0,0,223,
scooby_state_455dd1|63|1 223,0,0,0,0,0,0,0,0,0,0,0,0,0,0,223,
scooby_state_455d1a|61|1 223,0,0,0,0,0,0,0,0,0,0,0,0,0,0,223,
scooby_state_455dd1|7|1 222,0,0,0,0,0,0,0,1,0,0,0,0,0,0,223,
scooby_state_455c60|5|1 222,0,0,0,0,0,1,0,0,0,0,0,0,0,0,223,
scooby_state_455d1a|5|1 223,0,0,0,0,0,0,0,0,0,0,0,0,0,0,223,
scooby_state_455dd1|6|1 223,0,0,0,0,0,0,0,0,0,0,0,0,0,0,223,
scooby_state_455c60|62|1 223,0,0,0,0,0,0,0,0,0,0,0,0,0,0,223,
scooby_state_455d1a|6|1 222,0,0,0,0,0,0,0,0,0,0,1,0,0,0,223,
scooby_state_455dd1|3|1 223,0,0,0,0,0,0,0,0,0,0,0,0,0,0,223,
scooby_state_455c8d|20|1 208,0,0,0,0,0,0,0,0,0,0,0,0,0,0,208,
scooby_state_455c8d|2|1 208,0,0,0,0,0,0,0,0,0,0,0,0,0,0,208,
scooby_state_455d75|28|1 206,0,0,0,0,0,0,0,0,0,1,0,0,0,1,208,
scooby_state_455d75|33|1 208,0,0,0,0,0,0,0,0,0,0,0,0,0,0,208,
scooby_state_455c8d|30|1 208,0,0,0,0,0,0,0,0,0,0,0,0,0,0,208,
scooby_state_455c8d|61|1 208,0,0,0,0,0,0,0,0,0,0,0,0,0,0,208,
scooby_state_455c8d|35|1 208,0,0,0,0,0,0,0,0,0,0,0,0,0,0,208,
scooby_state_455c8d|25|1 208,0,0,0,0,0,0,0,0,0,0,0,0,0,0,208,
scooby_state_455c8d|60|1 207,0,0,0,0,0,0,0,0,0,0,0,0,0,0,207,
scooby_state_455c8d|51|1 206,0,0,0,0,0,0,0,0,0,0,0,0,1,0,207,
scooby_state_455c8d|58|1 206,0,0,0,1,0,0,0,0,0,0,0,0,0,0,207,
scooby_state_455c8d|53|1 207,0,0,0,0,0,0,0,0,0,0,0,0,0,0,207,
scooby_state_455d75|30|1 205,0,1,0,0,0,0,1,0,0,0,0,0,0,0,207,
scooby_state_455d75|54|1 205,0,0,0,0,0,0,0,0,0,1,0,0,0,1,207,
scooby_state_455d75|5|1 207,0,0,0,0,0,0,0,0,0,0,0,0,0,0,207,
scooby_state_455c8d|50|1 207,0,0,0,0,0,0,0,0,0,0,0,0,0,0,207,
scooby_state_455c8d|32|1 207,0,0,0,0,0,0,0,0,0,0,0,0,0,0,207,
scooby_state_455d75|25|1 206,0,0,0,0,0,0,1,0,0,0,0,0,0,0,207,
scooby_state_455c8d|36|1 206,0,0,0,0,0,0,0,0,0,0,1,0,0,0,207,
scooby_state_455c8d|45|1 207,0,0,0,0,0,0,0,0,0,0,0,0,0,0,207,
scooby_state_455d75|49|1 207,0,0,0,0,0,0,0,0,0,0,0,0,0,0,207,
scooby_state_455d75|2|1 207,0,0,0,0,0,0,0,0,0,0,0,0,0,0,207,
scooby_state_455d75|59|1 207,0,0,0,0,0,0,0,0,0,0,0,0,0,0,207,
scooby_state_455d75|31|1 206,0,0,0,0,0,0,0,1,0,0,0,0,0,0,207,
scooby_state_455d75|58|1 206,0,0,0,0,0,0,0,0,1,0,0,0,0,0,207,
scooby_state_455c8d|28|1 206,0,0,0,0,0,0,0,0,0,0,1,0,0,0,207,
scooby_state_455d75|62|1 207,0,0,0,0,0,0,0,0,0,0,0,0,0,0,207,
scooby_state_455c8d|1|1 207,0,0,0,0,0,0,0,0,0,0,0,0,0,0,207,
scooby_state_455c8d|46|1 207,0,0,0,0,0,0,0,0,0,0,0,0,0,0,207,
scooby_state_455c8d|10|1 207,0,0,0,0,0,0,0,0,0,0,0,0,0,0,207,
scooby_state_455c8d|41|1 207,0,0,0,0,0,0,0,0,0,0,0,0,0,0,207,
scooby_state_455d75|48|1 207,0,0,0,0,0,0,0,0,0,0,0,0,0,0,207,
scooby_state_455c8d|23|1 207,0,0,0,0,0,0,0,0,0,0,0,0,0,0,207,
scooby_state_455d75|8|1 207,0,0,0,0,0,0,0,0,0,0,0,0,0,0,207,
scooby_state_455c8d|7|1 207,0,0,0,0,0,0,0,0,0,0,0,0,0,0,207,
scooby_state_455d75|35|1 206,0,1,0,0,0,0,0,0,0,0,0,0,0,0,207,
scooby_state_455d75|38|1 207,0,0,0,0,0,0,0,0,0,0,0,0,0,0,207,
scooby_state_455d75|34|1 207,0,0,0,0,0,0,0,0,0,0,0,0,0,0,207,
scooby_state_455d75|43|1 207,0,0,0,0,0,0,0,0,0,0,0,0,0,0,207,
scooby_state_455d75|39|1 206,0,0,0,0,0,0,0,0,0,0,1,0,0,0,207,
scooby_state_455d75|4|1 207,0,0,0,0,0,0,0,0,0,0,0,0,0,0,207,
scooby_state_455d75|13|1 207,0,0,0,0,0,0,0,0,0,0,0,0,0,0,207,
scooby_state_455c8d|38|1 207,0,0,0,0,0,0,0,0,0,0,0,0,0,0,207,
scooby_state_455d75|44|1 206,0,0,0,0,0,0,0,0,0,0,0,1,0,0,207,
scooby_state_455d75|53|1 207,0,0,0,0,0,0,0,0,0,0,0,0,0,0,207,
scooby_state_455d75|15|1 207,0,0,0,0,0,0,0,0,0,0,0,0,0,0,207,
scooby_state_455c8d|21|1 207,0,0,0,0,0,0,0,0,0,0,0,0,0,0,207,
scooby_state_455c8d|63|1 206,0,0,0,0,0,0,0,0,0,0,1,0,0,0,207,
scooby_state_455c8d|56|1 207,0,0,0,0,0,0,0,0,0,0,0,0,0,0,207,
scooby_state_455c8d|6|1 207,0,0,0,0,0,0,0,0,0,0,0,0,0,0,207,
scooby_state_455d75|18|1 206,0,0,1,0,0,0,0,0,0,0,0,0,0,0,207,
scooby_state_455d75|20|1 205,0,0,0,1,0,0,0,0,0,0,1,0,0,0,207,
scooby_state_455c8d|22|1 206,0,0,1,0,0,0,0,0,0,0,0,0,0,0,207,
scooby_state_455c8d|33|1 205,1,0,0,0,0,0,1,0,0,0,0,0,0,0,207,
scooby_state_455d75|10|1 207,0,0,0,0,0,0,0,0,0,0,0,0,0,0,207,
scooby_state_455d75|23|1 206,0,0,0,0,0,0,0,0,0,0,0,1,0,0,207,
scooby_state_455c8d|26|1 207,0,0,0,0,0,0,0,0,0,0,0,0,0,0,207,
scooby_state_455c8d|31|1 207,0,0,0,0,0,0,0,0,0,0,0,0,0,0,207,
scooby_state_455d75|29|1 207,0,0,0,0,0,0,0,0,0,0,0,0,0,0,207,
scooby_state_455c8d|55|1 206,0,0,0,0,0,0,0,0,0,0,1,0,0,0,207,
scooby_state_455c8d|4|1 207,0,0,0,0,0,0,0,0,0,0,0,0,0,0,207,
scooby_state_455d75|3|1 207,0,0,0,0,0,0,0,0,0,0,0,0,0,0,207,
scooby_state_455c8d|27|1 207,0,0,0,0,0,0,0,0,0,0,0,0,0,0,207,
scooby_state_455c8d|5|1 207,0,0,0,0,0,0,0,0,0,0,0,0,0,0,207,
scooby_state_455d75|61|1 207,0,0,0,0,0,0,0,0,0,0,0,0,0,0,207,
scooby_state_455c8d|54|1 206,0,0,0,0,0,0,0,0,0,0,1,0,0,0,207,
scooby_state_455d75|63|1 205,0,0,0,0,1,0,0,0,0,1,0,0,0,0,207,
scooby_state_455d75|36|1 207,0,0,0,0,0,0,0,0,0,0,0,0,0,0,207,
scooby_state_455d75|1|1 206,0,0,0,0,0,0,0,0,0,0,0,0,0,0,206,
scooby_state_455c8d|12|1 206,0,0,0,0,0,0,0,0,0,0,0,0,0,0,206,
scooby_state_455d75|16|1 206,0,0,0,0,0,0,0,0,0,0,0,0,0,0,206,
scooby_state_455d75|9|1 206,0,0,0,0,0,0,0,0,0,0,0,0,0,0,206,
scooby_state_455d75|32|1 206,0,0,0,0,0,0,0,0,0,0,0,0,0,0,206,
scooby_state_455d75|56|1 206,0,0,0,0,0,0,0,0,0,0,0,0,0,0,206,
scooby_state_455d75|50|1 206,0,0,0,0,0,0,0,0,0,0,0,0,0,0,206,
scooby_state_455d75|19|1 204,0,0,1,1,0,0,0,0,0,0,0,0,0,0,206,
scooby_state_455d75|37|1 206,0,0,0,0,0,0,0,0,0,0,0,0,0,0,206,
scooby_state_455c8d|11|1 206,0,0,0,0,0,0,0,0,0,0,0,0,0,0,206,
scooby_state_455d75|52|1 206,0,0,0,0,0,0,0,0,0,0,0,0,0,0,206,
scooby_state_455c8d|15|1 206,0,0,0,0,0,0,0,0,0,0,0,0,0,0,206,
scooby_state_455d75|41|1 206,0,0,0,0,0,0,0,0,0,0,0,0,0,0,206,
scooby_state_455d75|17|1 206,0,0,0,0,0,0,0,0,0,0,0,0,0,0,206,
scooby_state_455c8d|44|1 206,0,0,0,0,0,0,0,0,0,0,0,0,0,0,206,
scooby_state_455c8d|52|1 205,0,0,1,0,0,0,0,0,0,0,0,0,0,0,206,
scooby_state_455c8d|3|1 206,0,0,0,0,0,0,0,0,0,0,0,0,0,0,206,
scooby_state_455c8d|42|1 206,0,0,0,0,0,0,0,0,0,0,0,0,0,0,206,
scooby_state_455d75|47|1 206,0,0,0,0,0,0,0,0,0,0,0,0,0,0,206,
scooby_state_455d75|7|1 206,0,0,0,0,0,0,0,0,0,0,0,0,0,0,206,
scooby_state_455c8d|9|1 206,0,0,0,0,0,0,0,0,0,0,0,0,0,0,206,
scooby_state_455d75|21|1 206,0,0,0,0,0,0,0,0,0,0,0,0,0,0,206,
scooby_state_455d75|42|1 206,0,0,0,0,0,0,0,0,0,0,0,0,0,0,206,
scooby_state_455d75|46|1 206,0,0,0,0,0,0,0,0,0,0,0,0,0,0,206,
scooby_state_455d75|60|1 206,0,0,0,0,0,0,0,0,0,0,0,0,0,0,206,
scooby_state_455c8d|59|1 206,0,0,0,0,0,0,0,0,0,0,0,0,0,0,206,
scooby_state_455c8d|24|1 206,0,0,0,0,0,0,0,0,0,0,0,0,0,0,206,
scooby_state_455d75|11|1 206,0,0,0,0,0,0,0,0,0,0,0,0,0,0,206,
scooby_state_455d75|12|1 206,0,0,0,0,0,0,0,0,0,0,0,0,0,0,206,
scooby_state_455c8d|49|1 205,0,0,0,0,0,0,0,0,0,0,0,1,0,0,206,
scooby_state_455c8d|43|1 206,0,0,0,0,0,0,0,0,0,0,0,0,0,0,206,
scooby_state_455c8d|19|1 206,0,0,0,0,0,0,0,0,0,0,0,0,0,0,206,
scooby_state_455c8d|48|1 206,0,0,0,0,0,0,0,0,0,0,0,0,0,0,206,
scooby_state_455d75|26|1 205,0,0,0,0,0,0,0,0,0,1,0,0,0,0,206,
scooby_state_455c8d|16|1 206,0,0,0,0,0,0,0,0,0,0,0,0,0,0,206,
scooby_state_455c8d|13|1 205,0,0,0,0,0,0,0,0,0,0,0,1,0,0,206,
scooby_state_455d75|14|1 206,0,0,0,0,0,0,0,0,0,0,0,0,0,0,206,
scooby_state_455d75|24|1 205,0,0,1,0,0,0,0,0,0,0,0,0,0,0,206,
scooby_state_455d75|27|1 205,0,0,0,0,0,0,1,0,0,0,0,0,0,0,206,
scooby_state_455c8d|47|1 206,0,0,0,0,0,0,0,0,0,0,0,0,0,0,206,
scooby_state_455d75|55|1 206,0,0,0,0,0,0,0,0,0,0,0,0,0,0,206,
scooby_state_455d75|51|1 205,0,0,0,0,0,0,0,0,0,0,0,1,0,0,206,
scooby_state_455d75|57|1 206,0,0,0,0,0,0,0,0,0,0,0,0,0,0,206,
scooby_state_455c8d|29|1 206,0,0,0,0,0,0,0,0,0,0,0,0,0,0,206,
scooby_state_455c8d|40|1 206,0,0,0,0,0,0,0,0,0,0,0,0,0,0,206,
scooby_state_455c8d|8|1 206,0,0,0,0,0,0,0,0,0,0,0,0,0,0,206,
scooby_state_455d75|45|1 206,0,0,0,0,0,0,0,0,0,0,0,0,0,0,206,
scooby_state_455d75|22|1 205,0,0,0,0,1,0,0,0,0,0,0,0,0,0,206,
scooby_state_455c8d|37|1 206,0,0,0,0,0,0,0,0,0,0,0,0,0,0,206,
scooby_state_455c8d|17|1 205,0,0,0,0,0,0,0,1,0,0,0,0,0,0,206,
scooby_state_455d75|40|1 206,0,0,0,0,0,0,0,0,0,0,0,0,0,0,206,
scooby_state_455d75|6|1 206,0,0,0,0,0,0,0,0,0,0,0,0,0,0,206,
scooby_state_455c8d|14|1 205,0,0,0,0,0,0,0,0,0,0,0,0,0,0,205,
scooby_state_455c8d|39|1 205,0,0,0,0,0,0,0,0,0,0,0,0,0,0,205,
scooby_state_455c8d|34|1 205,0,0,0,0,0,0,0,0,0,0,0,0,0,0,205,
scooby_state_455c8d|18|1 204,0,0,0,1,0,0,0,0,0,0,0,0,0,0,205,
scooby_state_455c8d|62|1 203,0,0,1,0,0,0,1,0,0,0,0,0,0,0,205,
scooby_state_455c8d|57|1 205,0,0,0,0,0,0,0,0,0,0,0,0,0,0,205,
scooby_state_455dfd|12|1 1,0,0,0,0,1,0,0,1,0,188,0,0,0,0,191,
scooby_state_455e34|30|1 190,0,0,0,0,0,0,0,0,0,0,0,1,0,0,191,
scooby_state_455cc3|47|1 190,0,0,0,1,0,0,0,0,0,0,0,0,0,0,191,
scooby_state_455e34|8|1 190,0,0,0,0,0,0,0,0,1,0,0,0,0,0,191,
scooby_state_455dfd|22|1 0,1,0,1,0,0,1,0,0,1,187,0,0,0,0,191,
scooby_state_455e34|36|1 190,1,0,0,0,0,0,0,0,0,0,0,0,0,0,191,
scooby_state_455e34|41|1 191,0,0,0,0,0,0,0,0,0,0,0,0,0,0,191,
scooby_state_455e34|47|1 191,0,0,0,0,0,0,0,0,0,0,0,0,0,0,191,
scooby_state_455cc3|14|1 191,0,0,0,0,0,0,0,0,0,0,0,0,0,0,191,
scooby_state_455cc3|45|1 191,0,0,0,0,0,0,0,0,0,0,0,0,0,0,191,
scooby_state_455e34|19|1 190,0,0,0,0,0,1,0,0,0,0,0,0,0,0,191,
scooby_state_455e34|61|1 191,0,0,0,0,0,0,0,0,0,0,0,0,0,0,191,
scooby_state_455e34|58|1 190,0,0,0,0,0,0,0,0,0,1,0,0,0,0,191,
scooby_state_455e34|16|1 191,0,0,0,0,0,0,0,0,0,0,0,0,0,0,191,
scooby_state_455e34|52|1 191,0,0,0,0,0,0,0,0,0,0,0,0,0,0,191,
scooby_state_455c73|18|1 190,0,0,0,0,0,0,0,0,0,0,0,0,0,0,190,
scooby_state_455cc3|8|1 190,0,0,0,0,0,0,0,0,0,0,0,0,0,0,190,
scooby_state_455e34|28|1 190,0,0,0,0,0,0,0,0,0,0,0,0,0,0,190,
scooby_state_455cc3|10|1 188,0,1,0,0,1,0,0,0,0,0,0,0,0,0,190,
scooby_state_455c73|51|1 190,0,0,0,0,0,0,0,0,0,0,0,0,0,0,190,
scooby_state_455c73|48|1 190,0,0,0,0,0,0,0,0,0,0,0,0,0,0,190,
scooby_state_455cc3|19|1 190,0,0,0,0,0,0,0,0,0,0,0,0,0,0,190,
scooby_state_455cc3|16|1 189,0,0,0,0,0,0,0,1,0,0,0,0,0,0,190,
scooby_state_455e34|56|1 190,0,0,0,0,0,0,0,0,0,0,0,0,0,0,190,
scooby_state_455e34|11|1 190,0,0,0,0,0,0,0,0,0,0,0,0,0,0,190,
scooby_state_455cc3|60|1 190,0,0,0,0,0,0,0,0,0,0,0,0,0,0,190,
scooby_state_455cc3|20|1 190,0,0,0,0,0,0,0,0,0,0,0,0,0,0,190,
scooby_state_455cc3|46|1 189,0,0,0,0,0,0,0,0,0,0,0,0,0,1,190,
scooby_state_455c73|27|1 190,0,0,0,0,0,0,0,0,0,0,0,0,0,0,190,
scooby_state_455cc3|56|1 190,0,0,0,0,0,0,0,0,0,0,0,0,0,0,190,
scooby_state_455c73|10|1 190,0,0,0,0,0,0,0,0,0,0,0,0,0,0,190,
scooby_state_455c73|11|1 190,0,0,0,0,0,0,0,0,0,0,0,0,0,0,190,
scooby_state_455cc3|12|1 190,0,0,0,0,0,0,0,0,0,0,0,0,0,0,190,
scooby_state_455cc3|11|1 189,0,0,0,0,0,1,0,0,0,0,0,0,0,0,190,
scooby_state_455e34|21|1 190,0,0,0,0,0,0,0,0,0,0,0,0,0,0,190,
scooby_state_455dfd|46|1 1,0,0,1,0,1,0,0,0,0,187,0,0,0,0,190,
scooby_state_455cc3|54|1 189,0,0,0,0,0,0,0,1,0,0,0,0,0,0,190,
scooby_state_455cc3|18|1 190,0,0,0,0,0,0,0,0,0,0,0,0,0,0,190,
scooby_state_455e34|2|1 189,0,0,0,0,0,0,0,0,0,1,0,0,0,0,190,
scooby_state_455cc3|32|1 190,0,0,0,0,0,0,0,0,0,0,0,0,0,0,190,
scooby_state_455e34|14|1 189,1,0,0,0,0,0,0,0,0,0,0,0,0,0,190,
scooby_state_455c73|46|1 190,0,0,0,0,0,0,0,0,0,0,0,0,0,0,190,
scooby_state_455c73|15|1 190,0,0,0,0,0,0,0,0,0,0,0,0,0,0,190,
scooby_state_455c73|39|1 190,0,0,0,0,0,0,0,0,0,0,0,0,0,0,190,
scooby_state_455cc3|23|1 190,0,0,0,0,0,0,0,0,0,0,0,0,0,0,190,
scooby_state_455c73|55|1 190,0,0,0,0,0,0,0,0,0,0,0,0,0,0,190,
scooby_state_455c73|60|1 190,0,0,0,0,0,0,0,0,0,0,0,0,0,0,190,
scooby_state_455c73|28|1 190,0,0,0,0,0,0,0,0,0,0,0,0,0,0,190,
scooby_state_455c73|20|1 190,0,0,0,0,0,0,0,0,0,0,0,0,0,0,190,
scooby_state_455cc3|1|1 190,0,0,0,0,0,0,0,0,0,0,0,0,0,0,190,
scooby_state_455cc3|28|1 190,0,0,0,0,0,0,0,0,0,0,0,0,0,0,190,
scooby_state_455c73|42|1 190,0,0,0,0,0,0,0,0,0,0,0,0,0,0,190,
scooby_state_455c73|24|1 190,0,0,0,0,0,0,0,0,0,0,0,0,0,0,190,
scooby_state_455cc3|41|1 190,0,0,0,0,0,0,0,0,0,0,0,0,0,0,190,
scooby_state_455c73|6|1 189,0,0,0,0,0,1,0,0,0,0,0,0,0,0,190,
scooby_state_455c73|9|1 190,0,0,0,0,0,0,0,0,0,0,0,0,0,0,190,
scooby_state_455e34|13|1 190,0,0,0,0,0,0,0,0,0,0,0,0,0,0,190,
scooby_state_455e34|38|1 189,0,0,0,0,0,0,0,0,0,0,0,0,1,0,190,
scooby_state_455c73|37|1 188,0,0,0,0,0,0,0,0,0,0,0,0,1,1,190,
scooby_state_455c73|56|1 190,0,0,0,0,0,0,0,0,0,0,0,0,0,0,190,
scooby_state_455c73|38|1 190,0,0,0,0,0,0,0,0,0,0,0,0,0,0,190,
scooby_state_455cc3|51|1 190,0,0,0,0,0,0,0,0,0,0,0,0,0,0,190,
scooby_state_455e34|49|1 190,0,0,0,0,0,0,0,0,0,0,0,0,0,0,190,
scooby_state_455cc3|55|1 190,0,0,0,0,0,0,0,0,0,0,0,0,0,0,190,
scooby_state_455cc3|27|1 189,0,0,0,0,0,1,0,0,0,0,0,0,0,0,190,
scooby_state_455e34|33|1 189,0,0,0,0,0,0,0,0,0,0,0,0,1,0,190,
scooby_state_455c73|57|1 190,0,0,0,0,0,0,0,0,0,0,0,0,0,0,190,
scooby_state_455e34|3|1 190,0,0,0,0,0,0,0,0,0,0,0,0,0,0,190,
scooby_state_455e34|25|1 190,0,0,0,0,0,0,0,0,0,0,0,0,0,0,190,
scooby_state_455e34|5|1 188,0,0,0,0,0,0,1,0,0,0,1,0,0,0,190,
scooby_state_455dfd|33|1 0,0,1,0,1,0,0,0,0,0,188,0,0,0,0,190,
scooby_state_455e34|44|1 190,0,0,0,0,0,0,0,0,0,0,0,0,0,0,190,
scooby_state_455cc3|38|1 189,0,0,0,1,0,0,0,0,0,0,0,0,0,0,190,
scooby_state_455cc3|37|1 190,0,0,0,0,0,0,0,0,0,0,0,0,0,0,190,
scooby_state_455e34|22|1 190,0,0,0,0,0,0,0,0,0,0,0,0,0,0,190,
scooby_state_455cc3|36|1 190,0,0,0,0,0,0,0,0,0,0,0,0,0,0,190,
scooby_state_455dfd|42|1 0,0,1,0,0,1,0,0,0,0,188,0,0,0,0,190,
scooby_state_455e34|27|1 190,0,0,0,0,0,0,0,0,0,0,0,0,0,0,190,
scooby_state_455c73|19|1 190,0,0,0,0,0,0,0,0,0,0,0,0,0,0,190,
scooby_state_455c73|29|1 190,0,0,0,0,0,0,0,0,0,0,0,0,0,0,190,
scooby_state_455dfd|58|1 0,0,0,0,1,0,1,0,0,1,187,0,0,0,0,190,
scooby_state_455c73|1|1 190,0,0,0,0,0,0,0,0,0,0,0,0,0,0,190,
scooby_state_455c73|47|1 188,0,1,0,0,0,0,0,0,0,1,0,0,0,0,190,
scooby_state_455e34|63|1 190,0,0,0,0,0,0,0,0,0,0,0,0,0,0,190,
scooby_state_455c73|54|1 189,0,0,0,0,0,0,0,0,0,0,0,0,0,0,189,
scooby_state_455c73|34|1 189,0,0,0,0,0,0,0,0,0,0,0,0,0,0,189,
scooby_state_455c73|5|1 189,0,0,0,0,0,0,0,0,0,0,0,0,0,0,189,
scooby_state_455c73|14|1 189,0,0,0,0,0,0,0,0,0,0,0,0,0,0,189,
scooby_state_455cc3|6|1 187,0,0,0,1,0,1,0,0,0,0,0,0,0,0,189,
scooby_state_455dfd|13|1 1,0,0,1,0,1,0,0,0,0,186,0,0,0,0,189,
scooby_state_455dfd|50|1 0,1,0,1,0,0,0,0,1,0,186,0,0,0,0,189,
scooby_state_455c73|33|1 189,0,0,0,0,0,0,0,0,0,0,0,0,0,0,189,
scooby_state_455c73|8|1 188,0,0,0,0,0,0,0,1,0,0,0,0,0,0,189,
scooby_state_455dfd|35|1 0,0,1,0,0,1,0,0,0,0,186,0,1,0,0,189,
scooby_state_455e34|42|1 189,0,0,0,0,0,0,0,0,0,0,0,0,0,0,189,
scooby_state_455e34|31|1 189,0,0,0,0,0,0,0,0,0,0,0,0,0,0,189,
scooby_state_455c73|41|1 189,0,0,0,0,0,0,0,0,0,0,0,0,0,0,189,
scooby_state_455cc3|29|1 189,0,0,0,0,0,0,0,0,0,0,0,0,0,0,189,
scooby_state_455cc3|63|1 187,0,0,0,1,0,1,0,0,0,0,0,0,0,0,189,
scooby_state_455c73|40|1 189,0,0,0,0,0,0,0,0,0,0,0,0,0,0,189,
scooby_state_455c73|58|1 189,0,0,0,0,0,0,0,0,0,0,0,0,0,0,189,
scooby_state_455cc3|17|1 189,0,0,0,0,0,0,0,0,0,0,0,0,0,0,189,
scooby_state_455e34|32|1 189,0,0,0,0,0,0,0,0,0,0,0,0,0,0,189,
scooby_state_455dfd|31|1 0,0,1,0,1,0,0,1,0,0,186,0,0,0,0,189,
scooby_state_455c73|22|1 189,0,0,0,0,0,0,0,0,0,0,0,0,0,0,189,
scooby_state_455c73|13|1 189,0,0,0,0,0,0,0,0,0,0,0,0,0,0,189,
scooby_state_455cc3|53|1 189,0,0,0,0,0,0,0,0,0,0,0,0,0,0,189,
scooby_state_455c73|23|1 189,0,0,0,0,0,0,0,0,0,0,0,0,0,0,189,
scooby_state_455dfd|40|1 0,0,1,0,0,1,0,1,0,0,186,0,0,0,0,189,
scooby_state_455c73|52|1 188,0,0,0,0,0,1,0,0,0,0,0,0,0,0,189,
scooby_state_455e34|24|1 189,0,0,0,0,0,0,0,0,0,0,0,0,0,0,189,
scooby_state_455cc3|30|1 189,0,0,0,0,0,0,0,0,0,0,0,0,0,0,189,
scooby_state_455c73|63|1 189,0,0,0,0,0,0,0,0,0,0,0,0,0,0,189,
scooby_state_455c73|36|1 187,0,0,0,1,0,0,0,0,0,0,0,0,0,1,189,
scooby_state_455cc3|21|1 188,0,0,0,0,0,0,0,0,0,0,0,0,1,0,189,
scooby_state_455e34|50|1 189,0,0,0,0,0,0,0,0,0,0,0,0,0,0,189,
scooby_state_455e34|53|1 189,0,0,0,0,0,0,0,0,0,0,0,0,0,0,189,
scooby_state_455dfd|41|1 1,0,1,0,0,0,0,1,0,0,186,0,0,0,0,189,
scooby_state_455cc3|9|1 188,0,0,0,0,0,1,0,0,0,0,0,0,0,0,189,
scooby_state_455e34|45|1 189,0,0,0,0,0,0,0,0,0,0,0,0,0,0,189,
scooby_state_455e34|17|1 189,0,0,0,0,0,0,0,0,0,0,0,0,0,0,189,
scooby_state_455cc3|48|1 189,0,0,0,0,0,0,0,0,0,0,0,0,0,0,189,
scooby_state_455c73|3|1 188,0,1,0,0,0,0,0,0,0,0,0,0,0,0,189,
scooby_state_455cc3|42|1 189,0,0,0,0,0,0,0,0,0,0,0,0,0,0,189,
scooby_state_455c73|44|1 189,0,0,0,0,0,0,0,0,0,0,0,0,0,0,189,
scooby_state_455dfd|21|1 0,1,0,0,0,0,1,0,1,0,185,0,1,0,0,189,
scooby_state_455cc3|58|1 188,0,0,0,0,0,0,0,0,0,0,0,0,0,1,189,
scooby_state_455c73|35|1 189,0,0,0,0,0,0,0,0,0,0,0,0,0,0,189,
scooby_state_455cc3|61|1 189,0,0,0,0,0,0,0,0,0,0,0,0,0,0,189,
scooby_state_455cc3|3|1 189,0,0,0,0,0,0,0,0,0,0,0,0,0,0,189,
scooby_state_455dfd|44|1 0,0,0,1,0,1,0,0,0,0,187,0,0,0,0,189,
scooby_state_455dfd|36|1 0,0,0,0,0,1,0,1,0,0,187,0,0,0,0,189,
scooby_state_455c73|53|1 187,0,0,0,0,1,0,1,0,0,0,0,0,0,0,189,
scooby_state_455c73|16|1 189,0,0,0,0,0,0,0,0,0,0,0,0,0,0,189,
scooby_state_455e34|10|1 188,0,0,0,0,0,0,0,0,0,0,1,0,0,0,189,
scooby_state_455e34|39|1 189,0,0,0,0,0,0,0,0,0,0,0,0,0,0,189,
scooby_state_455c73|12|1 189,0,0,0,0,0,0,0,0,0,0,0,0,0,0,189,
scooby_state_455cc3|26|1 188,1,0,0,0,0,0,0,0,0,0,0,0,0,0,189,
scooby_state_455cc3|13|1 189,0,0,0,0,0,0,0,0,0,0,0,0,0,0,189,
scooby_state_455dfd|49|1 0,0,0,1,0,0,1,0,1,0,186,0,0,0,0,189,
scooby_state_455c73|49|1 189,0,0,0,0,0,0,0,0,0,0,0,0,0,0,189,
scooby_state_455cc3|22|1 189,0,0,0,0,0,0,0,0,0,0,0,0,0,0,189,
scooby_state_455cc3|33|1 189,0,0,0,0,0,0,0,0,0,0,0,0,0,0,189,
scooby_state_455c73|32|1 189,0,0,0,0,0,0,0,0,0,0,0,0,0,0,189,
scooby_state_455c73|21|1 189,0,0,0,0,0,0,0,0,0,0,0,0,0,0,189,
scooby_state_455c73|50|1 189,0,0,0,0,0,0,0,0,0,0,0,0,0,0,189,
scooby_state_455c73|4|1 189,0,0,0,0,0,0,0,0,0,0,0,0,0,0,189,
scooby_state_455c73|7|1 189,0,0,0,0,0,0,0,0,0,0,0,0,0,0,189,
scooby_state_455cc3|52|1 188,0,0,0,0,0,0,0,1,0,0,0,0,0,0,189,
scooby_state_455cc3|2|1 189,0,0,0,0,0,0,0,0,0,0,0,0,0,0,189,
scooby_state_455c73|59|1 188,0,0,0,0,0,0,0,1,0,0,0,0,0,0,189,
scooby_state_455c73|45|1 188,0,0,0,0,0,0,0,0,0,0,0,0,0,1,189,
scooby_state_455cc3|62|1 189,0,0,0,0,0,0,0,0,0,0,0,0,0,0,189,
scooby_state_455c73|30|1 189,0,0,0,0,0,0,0,0,0,0,0,0,0,0,189,
scooby_state_455e34|60|1 189,0,0,0,0,0,0,0,0,0,0,0,0,0,0,189,
scooby_state_455c73|2|1 188,0,0,0,0,1,0,0,0,0,0,0,0,0,0,189,
scooby_state_455cc3|49|1 189,0,0,0,0,0,0,0,0,0,0,0,0,0,0,189,
scooby_state_455e34|57|1 188,0,0,0,0,0,0,1,0,0,0,0,0,0,0,189,
scooby_state_455c73|43|1 189,0,0,0,0,0,0,0,0,0,0,0,0,0,0,189,
scooby_state_455cc3|50|1 189,0,0,0,0,0,0,0,0,0,0,0,0,0,0,189,
scooby_state_455c73|26|1 188,0,0,0,0,0,0,0,0,0,0,1,0,0,0,189,
scooby_state_455dfd|61|1 0,1,0,0,0,0,0,0,0,1,186,0,0,0,1,189,
scooby_state_455e34|12|1 189,0,0,0,0,0,0,0,0,0,0,0,0,0,0,189,
scooby_state_455e34|6|1 189,0,0,0,0,0,0,0,0,0,0,0,0,0,0,189,
scooby_state_455cc3|35|1 189,0,0,0,0,0,0,0,0,0,0,0,0,0,0,189,
scooby_state_455cc3|31|1 189,0,0,0,0,0,0,0,0,0,0,0,0,0,0,189,
scooby_state_455dfd|30|1 0,0,1,0,0,0,0,1,0,1,186,0,0,0,0,189,
scooby_state_455cc3|57|1 189,0,0,0,0,0,0,0,0,0,0,0,0,0,0,189,
scooby_state_455e34|55|1 189,0,0,0,0,0,0,0,0,0,0,0,0,0,0,189,
scooby_state_455e34|43|1 188,0,0,0,0,0,0,1,0,0,0,0,0,0,0,189,
scooby_state_455cc3|40|1 189,0,0,0,0,0,0,0,0,0,0,0,0,0,0,189,
scooby_state_455dfd|59|1 0,1,0,0,1,0,0,0,0,1,186,0,0,0,0,189,
scooby_state_455cc3|7|1 189,0,0,0,0,0,0,0,0,0,0,0,0,0,0,189,
scooby_state_455c73|25|1 189,0,0,0,0,0,0,0,0,0,0,0,0,0,0,189,
scooby_state_455e34|7|1 189,0,0,0,0,0,0,0,0,0,0,0,0,0,0,189,
scooby_state_455c73|61|1 188,0,0,0,0,0,0,0,1,0,0,0,0,0,0,189,
scooby_state_455c73|17|1 186,0,0,0,0,2,0,0,0,0,0,0,0,1,0,189,
scooby_state_455e34|18|1 189,0,0,0,0,0,0,0,0,0,0,0,0,0,0,189,
scooby_state_455cc3|5|1 189,0,0,0,0,0,0,0,0,0,0,0,0,0,0,189,
scooby_state_455cc3|15|1 189,0,0,0,0,0,0,0,0,0,0,0,0,0,0,189,
scooby_state_455e34|46|1 189,0,0,0,0,0,0,0,0,0,0,0,0,0,0,189,
scooby_state_455e34|23|1 188,0,0,0,0,0,0,0,0,0,0,1,0,0,0,189,
scooby_state_455e34|34|1 189,0,0,0,0,0,0,0,0,0,0,0,0,0,0,189,
scooby_state_455e34|59|1 189,0,0,0,0,0,0,0,0,0,0,0,0,0,0,189,
scooby_state_455dfd|52|1 0,1,0,0,0,0,0,0,1,0,186,0,0,0,0,188,
scooby_state_455dfd|63|1 0,0,1,0,0,0,0,1,0,1,185,0,0,0,0,188,
scooby_state_455e34|37|1 187,1,0,0,0,0,0,0,0,0,0,0,0,0,0,188,
scooby_state_455cc3|34|1 188,0,0,0,0,0,0,0,0,0,0,0,0,0,0,188,
scooby_state_455cc3|44|1 188,0,0,0,0,0,0,0,0,0,0,0,0,0,0,188,
scooby_state_455e34|62|1 188,0,0,0,0,0,0,0,0,0,0,0,0,0,0,188,
scooby_state_455c73|62|1 188,0,0,0,0,0,0,0,0,0,0,0,0,0,0,188,
scooby_state_455e34|26|1 188,0,0,0,0,0,0,0,0,0,0,0,0,0,0,188,
scooby_state_455dfd|39|1 1,0,1,0,0,0,0,1,0,0,185,0,0,0,0,188,
scooby_state_455dfd|54|1 0,1,0,0,0,0,1,0,0,1,185,0,0,0,0,188,
scooby_state_455e34|51|1 188,0,0,0,0,0,0,0,0,0,0,0,0,0,0,188,
scooby_state_455cc3|4|1 187,1,0,0,0,0,0,0,0,0,0,0,0,0,0,188,
scooby_state_455cc3|43|1 188,0,0,0,0,0,0,0,0,0,0,0,0,0,0,188,
scooby_state_455e34|48|1 188,0,0,0,0,0,0,0,0,0,0,0,0,0,0,188,
scooby_state_455dfd|37|1 0,0,1,0,0,1,0,0,0,0,186,0,0,0,0,188,
scooby_state_455e34|35|1 188,0,0,0,0,0,0,0,0,0,0,0,0,0,0,188,
scooby_state_455dfd|25|1 0,0,0,0,0,0,1,0,0,1,186,0,0,0,0,188,
scooby_state_455dfd|57|1 0,1,0,0,1,0,0,0,0,1,185,0,0,0,0,188,
scooby_state_455cc3|39|1 188,0,0,0,0,0,0,0,0,0,0,0,0,0,0,188,
scooby_state_455e34|1|1 188,0,0,0,0,0,0,0,0,0,0,0,0,0,0,188,
scooby_state_455dfd|4|1 0,0,1,0,0,1,0,0,0,0,186,0,0,0,0,188,
scooby_state_455cc3|59|1 187,0,0,0,0,0,0,0,0,0,1,0,0,0,0,188,
scooby_state_455dfd|29|1 0,0,0,0,1,0,0,1,0,0,186,0,0,0,0,188,
scooby_state_455cc3|24|1 188,0,0,0,0,0,0,0,0,0,0,0,0,0,0,188,
scooby_state_455dfd|51|1 0,0,0,1,0,0,1,0,0,0,186,0,0,0,0,188,
scooby_state_455dfd|18|1 0,0,0,1,0,0,1,0,1,0,185,0,0,0,0,188,
scooby_state_455e34|9|1 188,0,0,0,0,0,0,0,0,0,0,0,0,0,0,188,
scooby_state_455e34|4|1 187,1,0,0,0,0,0,0,0,0,0,0,0,0,0,188,
scooby_state_455e34|15|1 187,0,0,0,0,0,0,0,0,1,0,0,0,0,0,188,
scooby_state_455cc3|25|1 188,0,0,0,0,0,0,0,0,0,0,0,0,0,0,188,
scooby_state_455c73|31|1 188,0,0,0,0,0,0,0,0,0,0,0,0,0,0,188,
scooby_state_455e34|54|1 188,0,0,0,0,0,0,0,0,0,0,0,0,0,0,188,
scooby_state_455e34|29|1 186,1,0,0,0,0,0,0,0,0,1,0,0,0,0,188,
scooby_state_455dfd|17|1 0,1,0,1,0,0,0,0,1,1,184,0,0,0,0,188,
scooby_state_455dfd|53|1 0,0,0,1,0,0,1,0,0,0,185,0,0,0,0,187,
scooby_state_455e34|40|1 187,0,0,0,0,0,0,0,0,0,0,0,0,0,0,187,
scooby_state_455dfd|48|1 1,0,0,1,0,0,0,1,1,0,183,0,0,0,0,187,
scooby_state_455dfd|34|1 0,0,0,0,0,0,0,1,0,0,186,0,0,0,0,187,
scooby_state_455dfd|24|1 0,1,0,0,1,0,0,0,0,0,185,0,0,0,0,187,
scooby_state_455dfd|7|1 0,0,0,0,0,1,0,1,0,0,185,0,0,0,0,187,
scooby_state_455dfd|26|1 0,1,0,0,1,0,0,0,0,1,184,0,0,0,0,187,
scooby_state_455e34|20|1 187,0,0,0,0,0,0,0,0,0,0,0,0,0,0,187,
scooby_state_455dfd|56|1 0,1,0,0,1,0,1,0,0,1,183,0,0,0,0,187,
scooby_state_455dfd|62|1 0,0,0,0,1,0,0,1,0,0,184,0,0,0,0,186,
scooby_state_455dfd|47|1 0,0,0,0,0,1,0,0,1,0,184,0,0,0,0,186,
scooby_state_455dfd|19|1 0,1,0,1,0,0,0,0,1,0,183,0,0,0,0,186,
scooby_state_455dfd|6|1 1,0,1,0,0,0,0,0,0,0,184,0,0,0,0,186,
scooby_state_455dfd|60|1 0,0,0,0,2,0,1,0,0,0,183,0,0,0,0,186,
scooby_state_455dfd|10|1 1,0,0,1,0,0,0,1,1,0,182,0,0,0,0,186,
scooby_state_455dfd|27|1 0,0,0,0,1,0,1,0,0,1,183,0,0,0,0,186,
scooby_state_455dfd|45|1 1,0,0,0,0,1,0,0,1,0,183,0,0,0,0,186,
scooby_state_455dfd|0|0 3,0,0,0,0,0,0,0,0,0,183,0,0,0,0,186,
scooby_state_455dfd|32|1 0,0,1,0,0,0,0,1,0,1,183,0,0,0,0,186,
scooby_state_455dfd|43|1 1,0,0,0,0,0,0,0,1,0,184,0,0,0,0,186,
scooby_state_455dfd|11|1 0,0,0,1,0,1,0,0,0,0,184,0,0,0,0,186,
scooby_state_455dfd|9|1 0,0,2,0,0,1,0,0,1,0,182,0,0,0,0,186,
scooby_state_455dfd|3|1 0,0,0,0,1,0,0,1,0,1,182,0,0,0,0,185,
scooby_state_455dfd|28|1 0,1,0,0,1,0,0,0,0,1,182,0,0,0,0,185,
scooby_state_455dfd|20|1 0,0,0,1,0,0,1,0,0,0,183,0,0,0,0,185,
scooby_state_455dfd|14|1 1,0,0,0,0,1,0,0,1,0,182,0,0,0,0,185,
scooby_state_455dfd|55|1 0,1,0,0,1,0,1,0,0,0,182,0,0,0,0,185,
scooby_state_455dfd|38|1 0,0,0,0,0,1,0,1,0,0,183,0,0,0,0,185,
scooby_state_455dfd|15|1 1,0,1,1,0,0,0,0,0,0,179,1,0,1,0,184,
scooby_state_455dfd|8|1 1,0,1,0,0,0,0,1,0,0,180,0,0,0,0,183,
scooby_state_455dfd|16|1 0,0,0,0,0,0,1,0,1,0,181,0,0,0,0,183,
scooby_state_455dfd|2|1 0,0,1,0,1,0,0,0,0,1,180,0,0,0,0,183,
scooby_state_455dfd|1|1 0,0,1,0,0,0,0,1,0,2,178,0,0,0,1,183,
scooby_state_455dfd|5|1 0,0,0,0,0,1,0,1,0,0,181,0,0,0,0,183,
scooby_state_455dfd|23|1 0,1,0,0,0,0,1,0,0,1,178,1,0,0,0,182,
scooby_state_455c8d|29|0 139,0,0,0,0,0,0,0,0,0,0,0,0,0,0,139,
scooby_state_455e34|35|32 139,0,0,0,0,0,0,0,0,0,0,0,0,0,0,139,
scooby_state_455e34|60|32 139,0,0,0,0,0,0,0,0,0,0,0,0,0,0,139,
scooby_state_455e34|51|32 138,0,0,0,0,0,0,0,0,0,1,0,0,0,0,139,
scooby_state_455e34|40|32 139,0,0,0,0,0,0,0,0,0,0,0,0,0,0,139,
scooby_state_455e34|29|0 139,0,0,0,0,0,0,0,0,0,0,0,0,0,0,139,
scooby_state_455e34|15|0 139,0,0,0,0,0,0,0,0,0,0,0,0,0,0,139,
scooby_state_455e34|20|0 139,0,0,0,0,0,0,0,0,0,0,0,0,0,0,139,
scooby_state_455cc3|15|0 139,0,0,0,0,0,0,0,0,0,0,0,0,0,0,139,
scooby_state_455cc3|13|0 137,0,0,0,0,0,0,0,0,1,0,0,0,0,1,139,
scooby_state_455e34|46|32 139,0,0,0,0,0,0,0,0,0,0,0,0,0,0,139,
scooby_state_455e34|62|32 139,0,0,0,0,0,0,0,0,0,0,0,0,0,0,139,
scooby_state_455d75|27|0 138,0,0,0,0,0,0,0,0,0,0,0,0,0,1,139,
scooby_state_455d75|1|0 139,0,0,0,0,0,0,0,0,0,0,0,0,0,0,139,
scooby_state_455e34|26|0 139,0,0,0,0,0,0,0,0,0,0,0,0,0,0,139,
scooby_state_455c8d|18|0 139,0,0,0,0,0,0,0,0,0,0,0,0,0,0,139,
scooby_state_455e34|7|0 137,0,0,0,0,0,0,0,0,1,0,0,0,0,1,139,
scooby_state_455c8d|3|0 139,0,0,0,0,0,0,0,0,0,0,0,0,0,0,139,
scooby_state_455c8d|19|0 139,0,0,0,0,0,0,0,0,0,0,0,0,0,0,139,
scooby_state_455e34|48|32 139,0,0,0,0,0,0,0,0,0,0,0,0,0,0,139,
scooby_state_455e34|18|0 139,0,0,0,0,0,0,0,0,0,0,0,0,0,0,139,
scooby_state_455e34|24|0 138,0,0,1,0,0,0,0,0,0,0,0,0,0,0,139,
scooby_state_455d47|53|1 138,0,0,0,0,0,0,0,0,0,1,0,0,0,0,139,
scooby_state_455c8d|24|0 137,0,0,0,1,0,1,0,0,0,0,0,0,0,0,139,
scooby_state_455d47|19|1 137,0,0,0,1,0,0,0,0,0,0,0,0,0,0,138,
scooby_state_455d47|21|0 138,0,0,0,0,0,0,0,0,0,0,0,0,0,0,138,
scooby_state_455d47|55|1 138,0,0,0,0,0,0,0,0,0,0,0,0,0,0,138,
scooby_state_455c73|19|0 137,1,0,0,0,0,0,0,0,0,0,0,0,0,0,138,
scooby_state_455d47|48|32 137,0,0,0,0,0,0,0,0,0,1,0,0,0,0,138,
scooby_state_455d75|4|0 138,0,0,0,0,0,0,0,0,0,0,0,0,0,0,138,
scooby_state_455d47|25|1 138,0,0,0,0,0,0,0,0,0,0,0,0,0,0,138,
scooby_state_455de3|20|0 138,0,0,0,0,0,0,0,0,0,0,0,0,0,0,138,
scooby_state_455c73|12|0 138,0,0,0,0,0,0,0,0,0,0,0,0,0,0,138,
scooby_state_455c8d|4|0 137,0,0,0,0,0,0,0,1,0,0,0,0,0,0,138,
scooby_state_455cc3|21|0 137,0,0,0,0,0,0,0,0,0,0,0,1,0,0,138,
scooby_state_455d47|56|1 138,0,0,0,0,0,0,0,0,0,0,0,0,0,0,138,
scooby_state_455de3|17|1 138,0,0,0,0,0,0,0,0,0,0,0,0,0,0,138,
scooby_state_455d47|22|1 137,0,0,0,0,0,0,0,0,0,0,1,0,0,0,138,
scooby_state_455de3|51|1 138,0,0,0,0,0,0,0,0,0,0,0,0,0,0,138,
scooby_state_455cc3|27|0 138,0,0,0,0,0,0,0,0,0,0,0,0,0,0,138,
scooby_state_455de3|50|32 137,1,0,0,0,0,0,0,0,0,0,0,0,0,0,138,
scooby_state_455d47|2|1 138,0,0,0,0,0,0,0,0,0,0,0,0,0,0,138,
scooby_state_455c73|16|0 137,1,0,0,0,0,0,0,0,0,0,0,0,0,0,138,
scooby_state_455de3|22|0 138,0,0,0,0,0,0,0,0,0,0,0,0,0,0,138,
scooby_state_455de3|11|1 138,0,0,0,0,0,0,0,0,0,0,0,0,0,0,138,
scooby_state_455e34|10|0 138,0,0,0,0,0,0,0,0,0,0,0,0,0,0,138,
scooby_state_455d47|51|1 138,0,0,0,0,0,0,0,0,0,0,0,0,0,0,138,
scooby_state_455e34|54|32 138,0,0,0,0,0,0,0,0,0,0,0,0,0,0,138,
scooby_state_455c73|22|0 138,0,0,0,0,0,0,0,0,0,0,0,0,0,0,138,
scooby_state_455c73|8|0 138,0,0,0,0,0,0,0,0,0,0,0,0,0,0,138,
scooby_state_455d47|57|32 138,0,0,0,0,0,0,0,0,0,0,0,0,0,0,138,
scooby_state_455c8d|28|0 138,0,0,0,0,0,0,0,0,0,0,0,0,0,0,138,
scooby_state_455d47|58|1 138,0,0,0,0,0,0,0,0,0,0,0,0,0,0,138,
scooby_state_455de3|30|1 138,0,0,0,0,0,0,0,0,0,0,0,0,0,0,138,
scooby_state_455d47|34|1 138,0,0,0,0,0,0,0,0,0,0,0,0,0,0,138,
scooby_state_455de3|47|1 138,0,0,0,0,0,0,0,0,0,0,0,0,0,0,138,
scooby_state_455de3|54|1 138,0,0,0,0,0,0,0,0,0,0,0,0,0,0,138,
scooby_state_455d75|6|0 137,1,0,0,0,0,0,0,0,0,0,0,0,0,0,138,
scooby_state_455c73|13|0 138,0,0,0,0,0,0,0,0,0,0,0,0,0,0,138,
scooby_state_455d47|51|32 138,0,0,0,0,0,0,0,0,0,0,0,0,0,0,138,
scooby_state_455e34|9|0 138,0,0,0,0,0,0,0,0,0,0,0,0,0,0,138,
scooby_state_455c73|21|0 138,0,0,0,0,0,0,0,0,0,0,0,0,0,0,138,
scooby_state_455de3|5|1 138,0,0,0,0,0,0,0,0,0,0,0,0,0,0,138,
scooby_state_455de3|33|32 138,0,0,0,0,0,0,0,0,0,0,0,0,0,0,138,
scooby_state_455de3|24|0 138,0,0,0,0,0,0,0,0,0,0,0,0,0,0,138,
scooby_state_455d47|32|1 138,0,0,0,0,0,0,0,0,0,0,0,0,0,0,138,
scooby_state_455de3|15|1 138,0,0,0,0,0,0,0,0,0,0,0,0,0,0,138,
scooby_state_455de3|47|32 138,0,0,0,0,0,0,0,0,0,0,0,0,0,0,138,
scooby_state_455c8d|6|0 138,0,0,0,0,0,0,0,0,0,0,0,0,0,0,138,
scooby_state_455d47|59|1 138,0,0,0,0,0,0,0,0,0,0,0,0,0,0,138,
scooby_state_455d47|36|1 138,0,0,0,0,0,0,0,0,0,0,0,0,0,0,138,
scooby_state_455d47|17|0 138,0,0,0,0,0,0,0,0,0,0,0,0,0,0,138,
scooby_state_455e34|56|32 137,0,0,0,0,0,0,0,0,0,0,1,0,0,0,138,
scooby_state_455d47|48|1 138,0,0,0,0,0,0,0,0,0,0,0,0,0,0,138,
scooby_state_455d47|49|1 138,0,0,0,0,0,0,0,0,0,0,0,0,0,0,138,
scooby_state_455d47|28|1 138,0,0,0,0,0,0,0,0,0,0,0,0,0,0,138,
scooby_state_455d47|12|0 138,0,0,0,0,0,0,0,0,0,0,0,0,0,0,138,
scooby_state_455de3|19|0 138,0,0,0,0,0,0,0,0,0,0,0,0,0,0,138,
scooby_state_455d75|12|0 138,0,0,0,0,0,0,0,0,0,0,0,0,0,0,138,
scooby_state_455d75|26|0 137,0,0,0,0,0,0,0,0,0,0,0,1,0,0,138,
scooby_state_455de3|29|0 136,0,0,0,0,0,0,0,0,1,0,0,0,0,1,138,
scooby_state_455de3|29|1 138,0,0,0,0,0,0,0,0,0,0,0,0,0,0,138,
scooby_state_455d47|53|32 137,0,0,0,1,0,0,0,0,0,0,0,0,0,0,138,
scooby_state_455cc3|25|0 138,0,0,0,0,0,0,0,0,0,0,0,0,0,0,138,
scooby_state_455d47|4|0 138,0,0,0,0,0,0,0,0,0,0,0,0,0,0,138,
scooby_state_455de3|61|32 138,0,0,0,0,0,0,0,0,0,0,0,0,0,0,138,
scooby_state_455c73|17|0 138,0,0,0,0,0,0,0,0,0,0,0,0,0,0,138,
scooby_state_455de3|17|0 138,0,0,0,0,0,0,0,0,0,0,0,0,0,0,138,
scooby_state_455e34|27|0 138,0,0,0,0,0,0,0,0,0,0,0,0,0,0,138,
scooby_state_455de3|56|32 138,0,0,0,0,0,0,0,0,0,0,0,0,0,0,138,
scooby_state_455de3|16|0 138,0,0,0,0,0,0,0,0,0,0,0,0,0,0,138,
scooby_state_455c73|7|0 138,0,0,0,0,0,0,0,0,0,0,0,0,0,0,138,
scooby_state_455cc3|4|0 138,0,0,0,0,0,0,0,0,0,0,0,0,0,0,138,
scooby_state_455d47|24|1 136,0,0,0,0,0,0,0,0,0,1,0,1,0,0,138,
scooby_state_455d47|26|0 137,0,0,0,0,0,0,0,0,1,0,0,0,0,0,138,
scooby_state_455e34|17|0 138,0,0,0,0,0,0,0,0,0,0,0,0,0,0,138,
scooby_state_455c8d|27|0 138,0,0,0,0,0,0,0,0,0,0,0,0,0,0,138,
scooby_state_455de3|62|1 138,0,0,0,0,0,0,0,0,0,0,0,0,0,0,138,
scooby_state_455de3|26|0 138,0,0,0,0,0,0,0,0,0,0,0,0,0,0,138,
scooby_state_455de3|60|32 138,0,0,0,0,0,0,0,0,0,0,0,0,0,0,138,
scooby_state_455d47|7|1 138,0,0,0,0,0,0,0,0,0,0,0,0,0,0,138,
scooby_state_455c73|25|0 138,0,0,0,0,0,0,0,0,0,0,0,0,0,0,138,
scooby_state_455e34|31|0 138,0,0,0,0,0,0,0,0,0,0,0,0,0,0,138,
scooby_state_455cc3|26|0 138,0,0,0,0,0,0,0,0,0,0,0,0,0,0,138,
scooby_state_455de3|46|32 138,0,0,0,0,0,0,0,0,0,0,0,0,0,0,138,
scooby_state_455d47|46|1 137,0,0,0,0,1,0,0,0,0,0,0,0,0,0,138,
scooby_state_455d75|11|0 138,0,0,0,0,0,0,0,0,0,0,0,0,0,0,138,
scooby_state_455c73|26|0 136,0,0,1,0,0,0,0,0,0,0,0,0,0,1,138,
scooby_state_455d47|25|0 136,0,0,0,0,0,1,0,0,0,0,0,0,1,0,138,
scooby_state_455de3|58|1 138,0,0,0,0,0,0,0,0,0,0,0,0,0,0,138,
scooby_state_455d75|30|0 136,0,0,0,0,1,0,0,0,0,0,1,0,0,0,138,
scooby_state_455d47|1|1 137,0,0,0,1,0,0,0,0,0,0,0,0,0,0,138,
scooby_state_455d47|33|1 138,0,0,0,0,0,0,0,0,0,0,0,0,0,0,138,
scooby_state_455e34|21|0 137,0,1,0,0,0,0,0,0,0,0,0,0,0,0,138,
scooby_state_455cc3|11|0 138,0,0,0,0,0,0,0,0,0,0,0,0,0,0,138,
scooby_state_455de3|30|0 138,0,0,0,0,0,0,0,0,0,0,0,0,0,0,138,
scooby_state_455d47|46|32 137,0,0,0,0,0,1,0,0,0,0,0,0,0,0,138,
scooby_state_455de3|23|0 137,0,0,0,0,0,0,1,0,0,0,0,0,0,0,138,
scooby_state_455d47|34|32 138,0,0,0,0,0,0,0,0,0,0,0,0,0,0,138,
scooby_state_455de3|42|32 137,0,0,0,0,0,0,1,0,0,0,0,0,0,0,138,
scooby_state_455d47|18|1 138,0,0,0,0,0,0,0,0,0,0,0,0,0,0,138,
scooby_state_455d47|62|1 138,0,0,0,0,0,0,0,0,0,0,0,0,0,0,138,
scooby_state_455e34|63|32 138,0,0,0,0,0,0,0,0,0,0,0,0,0,0,138,
scooby_state_455c8d|5|0 138,0,0,0,0,0,0,0,0,0,0,0,0,0,0,138,
scooby_state_455d47|32|32 137,0,0,0,0,0,1,0,0,0,0,0,0,0,0,138,
scooby_state_455de3|41|1 138,0,0,0,0,0,0,0,0,0,0,0,0,0,0,138,
scooby_state_455e34|2|0 137,0,0,0,0,0,0,0,0,1,0,0,0,0,0,138,
scooby_state_455e34|45|32 138,0,0,0,0,0,0,0,0,0,0,0,0,0,0,138,
scooby_state_455e34|6|0 138,0,0,0,0,0,0,0,0,0,0,0,0,0,0,138,
scooby_state_455cc3|6|0 138,0,0,0,0,0,0,0,0,0,0,0,0,0,0,138,
scooby_state_455c73|4|0 138,0,0,0,0,0,0,0,0,0,0,0,0,0,0,138,
scooby_state_455c73|10|0 138,0,0,0,0,0,0,0,0,0,0,0,0,0,0,138,
scooby_state_455c73|18|0 138,0,0,0,0,0,0,0,0,0,0,0,0,0,0,138,
scooby_state_455c8d|1|0 138,0,0,0,0,0,0,0,0,0,0,0,0,0,0,138,
scooby_state_455c8d|9|0 138,0,0,0,0,0,0,0,0,0,0,0,0,0,0,138,
scooby_state_455de3|32|1 138,0,0,0,0,0,0,0,0,0,0,0,0,0,0,138,
scooby_state_455de3|61|1 138,0,0,0,0,0,0,0,0,0,0,0,0,0,0,138,
scooby_state_455de3|6|0 137,0,0,0,0,0,0,0,0,0,0,0,0,0,1,138,
scooby_state_455d47|63|32 138,0,0,0,0,0,0,0,0,0,0,0,0,0,0,138,
scooby_state_455d75|21|0 137,0,0,0,0,1,0,0,0,0,0,0,0,0,0,138,
scooby_state_455de3|27|1 138,0,0,0,0,0,0,0,0,0,0,0,0,0,0,138,
scooby_state_455c73|5|0 138,0,0,0,0,0,0,0,0,0,0,0,0,0,0,138,
scooby_state_455d47|33|32 136,0,0,0,2,0,0,0,0,0,0,0,0,0,0,138,
scooby_state_455d47|30|0 138,0,0,0,0,0,0,0,0,0,0,0,0,0,0,138,
scooby_state_455de3|55|1 138,0,0,0,0,0,0,0,0,0,0,0,0,0,0,138,
scooby_state_455d75|17|0 138,0,0,0,0,0,0,0,0,0,0,0,0,0,0,138,
scooby_state_455d47|60|32 138,0,0,0,0,0,0,0,0,0,0,0,0,0,0,138,
scooby_state_455de3|14|0 137,0,0,0,0,0,0,0,0,0,0,0,0,1,0,138,
scooby_state_455de3|49|32 137,0,0,0,0,0,0,0,0,0,1,0,0,0,0,138,
scooby_state_455de3|28|1 138,0,0,0,0,0,0,0,0,0,0,0,0,0,0,138,
scooby_state_455c8d|14|0 138,0,0,0,0,0,0,0,0,0,0,0,0,0,0,138,
scooby_state_455de3|45|1 138,0,0,0,0,0,0,0,0,0,0,0,0,0,0,138,
scooby_state_455cc3|17|0 138,0,0,0,0,0,0,0,0,0,0,0,0,0,0,138,
scooby_state_455de3|60|1 137,0,0,0,0,0,0,0,0,0,0,0,0,0,1,138,
scooby_state_455e34|55|32 138,0,0,0,0,0,0,0,0,0,0,0,0,0,0,138,
scooby_state_455cc3|30|0 138,0,0,0,0,0,0,0,0,0,0,0,0,0,0,138,
scooby_state_455de3|59|32 137,0,0,0,0,0,0,0,0,0,1,0,0,0,0,138,
scooby_state_455d47|43|32 137,0,0,0,1,0,0,0,0,0,0,0,0,0,0,138,
scooby_state_455e34|59|32 138,0,0,0,0,0,0,0,0,0,0,0,0,0,0,138,
scooby_state_455d75|9|0 138,0,0,0,0,0,0,0,0,0,0,0,0,0,0,138,
scooby_state_455de3|25|1 138,0,0,0,0,0,0,0,0,0,0,0,0,0,0,138,
scooby_state_455d47|14|1 138,0,0,0,0,0,0,0,0,0,0,0,0,0,0,138,
scooby_state_455e34|23|0 138,0,0,0,0,0,0,0,0,0,0,0,0,0,0,138,
scooby_state_455d47|29|1 138,0,0,0,0,0,0,0,0,0,0,0,0,0,0,138,
scooby_state_455de3|24|1 138,0,0,0,0,0,0,0,0,0,0,0,0,0,0,138,
scooby_state_455d47|28|0 138,0,0,0,0,0,0,0,0,0,0,0,0,0,0,138,
scooby_state_455d47|8|0 138,0,0,0,0,0,0,0,0,0,0,0,0,0,0,138,
scooby_state_455d47|10|0 138,0,0,0,0,0,0,0,0,0,0,0,0,0,0,138,
scooby_state_455cc3|10|0 138,0,0,0,0,0,0,0,0,0,0,0,0,0,0,138,
scooby_state_455de3|1|1 136,0,1,0,0,0,0,0,0,0,0,1,0,0,0,138,
scooby_state_455de3|54|32 138,0,0,0,0,0,0,0,0,0,0,0,0,0,0,138,
scooby_state_455d75|14|0 137,0,0,0,0,0,0,0,0,0,0,0,0,0,1,138,
scooby_state_455d47|61|32 138,0,0,0,0,0,0,0,0,0,0,0,0,0,0,138,
scooby_state_455d47|54|32 137,1,0,0,0,0,0,0,0,0,0,0,0,0,0,138,
scooby_state_455c8d|23|0 138,0,0,0,0,0,0,0,0,0,0,0,0,0,0,138,
scooby_state_455e34|57|32 138,0,0,0,0,0,0,0,0,0,0,0,0,0,0,138,
scooby_state_455d47|58|32 138,0,0,0,0,0,0,0,0,0,0,0,0,0,0,138,
scooby_state_455e34|32|32 138,0,0,0,0,0,0,0,0,0,0,0,0,0,0,138,
scooby_state_455cc3|7|0 137,0,0,0,0,0,0,0,0,0,0,0,1,0,0,138,
scooby_state_455d47|42|1 138,0,0,0,0,0,0,0,0,0,0,0,0,0,0,138,
scooby_state_455de3|38|1 138,0,0,0,0,0,0,0,0,0,0,0,0,0,0,138,
scooby_state_455d47|26|1 138,0,0,0,0,0,0,0,0,0,0,0,0,0,0,138,
scooby_state_455de3|10|0 138,0,0,0,0,0,0,0,0,0,0,0,0,0,0,138,
scooby_state_455c73|3|0 138,0,0,0,0,0,0,0,0,0,0,0,0,0,0,138,
scooby_state_455d47|41|32 138,0,0,0,0,0,0,0,0,0,0,0,0,0,0,138,
scooby_state_455d47|37|32 138,0,0,0,0,0,0,0,0,0,0,0,0,0,0,138,
scooby_state_455de3|40|1 138,0,0,0,0,0,0,0,0,0,0,0,0,0,0,138,
scooby_state_455d47|24|0 138,0,0,0,0,0,0,0,0,0,0,0,0,0,0,138,
scooby_state_455d75|19|0 138,0,0,0,0,0,0,0,0,0,0,0,0,0,0,138,
scooby_state_455d47|21|1 138,0,0,0,0,0,0,0,0,0,0,0,0,0,0,138,
scooby_state_455c8d|26|0 138,0,0,0,0,0,0,0,0,0,0,0,0,0,0,138,
scooby_state_455d75|3|0 138,0,0,0,0,0,0,0,0,0,0,0,0,0,0,138,
scooby_state_455de3|22|1 137,0,0,0,0,0,0,0,0,1,0,0,0,0,0,138,
scooby_state_455d47|16|1 138,0,0,0,0,0,0,0,0,0,0,0,0,0,0,138,
scooby_state_455de3|14|1 138,0,0,0,0,0,0,0,0,0,0,0,0,0,0,138,
scooby_state_455c73|14|0 138,0,0,0,0,0,0,0,0,0,0,0,0,0,0,138,
scooby_state_455de3|11|0 138,0,0,0,0,0,0,0,0,0,0,0,0,0,0,138,
scooby_state_455d47|52|1 138,0,0,0,0,0,0,0,0,0,0,0,0,0,0,138,
scooby_state_455d47|50|32 138,0,0,0,0,0,0,0,0,0,0,0,0,0,0,138,
scooby_state_455d47|44|1 138,0,0,0,0,0,0,0,0,0,0,0,0,0,0,138,
scooby_state_455de3|39|32 138,0,0,0,0,0,0,0,0,0,0,0,0,0,0,138,
scooby_state_455d47|1|0 138,0,0,0,0,0,0,0,0,0,0,0,0,0,0,138,
scooby_state_455d47|20|0 138,0,0,0,0,0,0,0,0,0,0,0,0,0,0,138,
scooby_state_455d47|54|1 138,0,0,0,0,0,0,0,0,0,0,0,0,0,0,138,
scooby_state_455e34|1|0 138,0,0,0,0,0,0,0,0,0,0,0,0,0,0,138,
scooby_state_455de3|10|1 138,0,0,0,0,0,0,0,0,0,0,0,0,0,0,138,
scooby_state_455d47|23|0 138,0,0,0,0,0,0,0,0,0,0,0,0,0,0,138,
scooby_state_455c73|9|0 138,0,0,0,0,0,0,0,0,0,0,0,0,0,0,138,
scooby_state_455c73|2|0 138,0,0,0,0,0,0,0,0,0,0,0,0,0,0,138,
scooby_state_455de3|43|1 138,0,0,0,0,0,0,0,0,0,0,0,0,0,0,138,
scooby_state_455d47|38|1 137,0,0,0,0,0,0,0,0,0,0,0,0,1,0,138,
scooby_state_455e34|13|0 137,1,0,0,0,0,0,0,0,0,0,0,0,0,0,138,
scooby_state_455de3|48|1 138,0,0,0,0,0,0,0,0,0,0,0,0,0,0,138,
scooby_state_455d47|27|0 138,0,0,0,0,0,0,0,0,0,0,0,0,0,0,138,
scooby_state_455e34|43|32 138,0,0,0,0,0,0,0,0,0,0,0,0,0,0,138,
scooby_state_455c73|27|0 138,0,0,0,0,0,0,0,0,0,0,0,0,0,0,138,
scooby_state_455c73|28|0 138,0,0,0,0,0,0,0,0,0,0,0,0,0,0,138,
scooby_state_455de3|34|1 138,0,0,0,0,0,0,0,0,0,0,0,0,0,0,138,
scooby_state_455de3|2|0 138,0,0,0,0,0,0,0,0,0,0,0,0,0,0,138,
scooby_state_455d47|6|0 138,0,0,0,0,0,0,0,0,0,0,0,0,0,0,138,
scooby_state_455de3|3|1 138,0,0,0,0,0,0,0,0,0,0,0,0,0,0,138,
scooby_state_455d75|29|0 138,0,0,0,0,0,0,0,0,0,0,0,0,0,0,138,
scooby_state_455d75|16|0 138,0,0,0,0,0,0,0,0,0,0,0,0,0,0,138,
scooby_state_455de3|50|1 138,0,0,0,0,0,0,0,0,0,0,0,0,0,0,138,
scooby_state_455de3|57|1 138,0,0,0,0,0,0,0,0,0,0,0,0,0,0,138,
scooby_state_455d47|27|1 137,0,0,0,0,0,0,0,0,0,0,0,0,0,1,138,
scooby_state_455d75|7|0 138,0,0,0,0,0,0,0,0,0,0,0,0,0,0,138,
scooby_state_455d47|15|0 138,0,0,0,0,0,0,0,0,0,0,0,0,0,0,138,
scooby_state_455c8d|22|0 138,0,0,0,0,0,0,0,0,0,0,0,0,0,0,138,
scooby_state_455d47|45|1 138,0,0,0,0,0,0,0,0,0,0,0,0,0,0,138,
scooby_state_455d75|24|0 137,1,0,0,0,0,0,0,0,0,0,0,0,0,0,138,
scooby_state_455de3|27|0 138,0,0,0,0,0,0,0,0,0,0,0,0,0,0,138,
scooby_state_455de3|4|0 138,0,0,0,0,0,0,0,0,0,0,0,0,0,0,138,
scooby_state_455e34|4|0 138,0,0,0,0,0,0,0,0,0,0,0,0,0,0,138,
scooby_state_455de3|21|0 138,0,0,0,0,0,0,0,0,0,0,0,0,0,0,138,
scooby_state_455d47|9|1 137,1,0,0,0,0,0,0,0,0,0,0,0,0,0,138,
scooby_state_455d47|31|0 138,0,0,0,0,0,0,0,0,0,0,0,0,0,0,138,
scooby_state_455de3|7|1 138,0,0,0,0,0,0,0,0,0,0,0,0,0,0,138,
scooby_state_455de3|57|32 138,0,0,0,0,0,0,0,0,0,0,0,0,0,0,138,
scooby_state_455d47|63|1 138,0,0,0,0,0,0,0,0,0,0,0,0,0,0,138,
scooby_state_455de3|9|0 137,0,0,0,0,0,0,0,0,0,0,0,0,0,1,138,
scooby_state_455c8d|21|0 138,0,0,0,0,0,0,0,0,0,0,0,0,0,0,138,
scooby_state_455de3|8|0 137,0,0,1,0,0,0,0,0,0,0,0,0,0,0,138,
scooby_state_455c8d|8|0 137,0,0,0,0,0,0,0,0,1,0,0,0,0,0,138,
scooby_state_455d47|47|32 137,0,0,0,0,0,0,1,0,0,0,0,0,0,0,138,
scooby_state_455cc3|22|0 137,1,0,0,0,0,0,0,0,0,0,0,0,0,0,138,
scooby_state_455de3|31|0 137,0,0,0,0,0,0,0,1,0,0,0,0,0,0,138,
scooby_state_455e34|12|0 138,0,0,0,0,0,0,0,0,0,0,0,0,0,0,138,
scooby_state_455de3|43|32 137,0,0,1,0,0,0,0,0,0,0,0,0,0,0,138,
scooby_state_455d47|15|1 136,0,0,0,0,2,0,0,0,0,0,0,0,0,0,138,
scooby_state_455de3|20|1 137,1,0,0,0,0,0,0,0,0,0,0,0,0,0,138,
scooby_state_455d47|44|32 137,0,0,0,0,0,0,0,0,0,0,0,0,0,1,138,
scooby_state_455cc3|2|0 138,0,0,0,0,0,0,0,0,0,0,0,0,0,0,138,
scooby_state_455d47|11|1 138,0,0,0,0,0,0,0,0,0,0,0,0,0,0,138,
scooby_state_455d75|2|0 138,0,0,0,0,0,0,0,0,0,0,0,0,0,0,138,
scooby_state_455d47|14|0 138,0,0,0,0,0,0,0,0,0,0,0,0,0,0,138,
scooby_state_455d47|47|1 138,0,0,0,0,0,0,0,0,0,0,0,0,0,0,138,
scooby_state_455de3|44|32 138,0,0,0,0,0,0,0,0,0,0,0,0,0,0,138,
scooby_state_455cc3|18|0 138,0,0,0,0,0,0,0,0,0,0,0,0,0,0,138,
scooby_state_455e34|37|32 138,0,0,0,0,0,0,0,0,0,0,0,0,0,0,138,
scooby_state_455d47|61|1 137,0,0,0,0,0,1,0,0,0,0,0,0,0,0,138,
scooby_state_455d47|13|0 138,0,0,0,0,0,0,0,0,0,0,0,0,0,0,138,
scooby_state_455cc3|12|0 138,0,0,0,0,0,0,0,0,0,0,0,0,0,0,138,
scooby_state_455c73|23|0 138,0,0,0,0,0,0,0,0,0,0,0,0,0,0,138,
scooby_state_455d47|31|1 138,0,0,0,0,0,0,0,0,0,0,0,0,0,0,138,
scooby_state_455de3|18|1 138,0,0,0,0,0,0,0,0,0,0,0,0,0,0,138,
scooby_state_455cc3|24|0 138,0,0,0,0,0,0,0,0,0,0,0,0,0,0,138,
scooby_state_455de3|12|1 138,0,0,0,0,0,0,0,0,0,0,0,0,0,0,138,
scooby_state_455de3|28|0 138,0,0,0,0,0,0,0,0,0,0,0,0,0,0,138,
scooby_state_455de3|23|1 138,0,0,0,0,0,0,0,0,0,0,0,0,0,0,138,
scooby_state_455d47|5|1 138,0,0,0,0,0,0,0,0,0,0,0,0,0,0,138,
scooby_state_455de3|37|32 138,0,0,0,0,0,0,0,0,0,0,0,0,0,0,138,
scooby_state_455d47|16|0 138,0,0,0,0,0,0,0,0,0,0,0,0,0,0,138,
scooby_state_455d47|18|0 138,0,0,0,0,0,0,0,0,0,0,0,0,0,0,138,
scooby_state_455de3|12|0 138,0,0,0,0,0,0,0,0,0,0,0,0,0,0,138,
scooby_state_455de3|13|1 138,0,0,0,0,0,0,0,0,0,0,0,0,0,0,138,
scooby_state_455cc3|9|0 138,0,0,0,0,0,0,0,0,0,0,0,0,0,0,138,
scooby_state_455d47|17|1 138,0,0,0,0,0,0,0,0,0,0,0,0,0,0,138,
scooby_state_455cc3|16|0 137,0,0,0,0,0,0,0,0,0,0,0,0,1,0,138,
scooby_state_455cc3|19|0 138,0,0,0,0,0,0,0,0,0,0,0,0,0,0,138,
scooby_state_455de3|53|32 138,0,0,0,0,0,0,0,0,0,0,0,0,0,0,138,
scooby_state_455de3|21|1 138,0,0,0,0,0,0,0,0,0,0,0,0,0,0,138,
scooby_state_455de3|44|1 137,1,0,0,0,0,0,0,0,0,0,0,0,0,0,138,
scooby_state_455d75|22|0 138,0,0,0,0,0,0,0,0,0,0,0,0,0,0,138,
scooby_state_455de3|13|0 138,0,0,0,0,0,0,0,0,0,0,0,0,0,0,138,
scooby_state_455d47|35|32 137,0,0,0,0,0,0,0,0,0,0,0,0,0,0,137,
scooby_state_455de3|7|0 137,0,0,0,0,0,0,0,0,0,0,0,0,0,0,137,
scooby_state_455de3|19|1 136,0,0,0,0,0,0,0,0,0,0,0,1,0,0,137,
scooby_state_455d47|23|1 137,0,0,0,0,0,0,0,0,0,0,0,0,0,0,137,
scooby_state_455d47|40|1 136,0,0,0,1,0,0,0,0,0,0,0,0,0,0,137,
scooby_state_455e34|39|32 137,0,0,0,0,0,0,0,0,0,0,0,0,0,0,137,
scooby_state_455e34|22|0 137,0,0,0,0,0,0,0,0,0,0,0,0,0,0,137,
scooby_state_455cc3|3|0 135,1,0,0,0,0,0,0,0,0,0,1,0,0,0,137,
scooby_state_455de3|33|1 136,0,0,1,0,0,0,0,0,0,0,0,0,0,0,137,
scooby_state_455de3|31|1 136,0,1,0,0,0,0,0,0,0,0,0,0,0,0,137,
scooby_state_455de3|16|1 137,0,0,0,0,0,0,0,0,0,0,0,0,0,0,137,
scooby_state_455de3|55|32 137,0,0,0,0,0,0,0,0,0,0,0,0,0,0,137,
scooby_state_455d47|37|1 137,0,0,0,0,0,0,0,0,0,0,0,0,0,0,137,
scooby_state_455d47|3|1 137,0,0,0,0,0,0,0,0,0,0,0,0,0,0,137,
scooby_state_455cc3|5|0 137,0,0,0,0,0,0,0,0,0,0,0,0,0,0,137,
scooby_state_455de3|63|1 135,0,0,0,1,0,0,1,0,0,0,0,0,0,0,137,
scooby_state_455c8d|13|0 137,0,0,0,0,0,0,0,0,0,0,0,0,0,0,137,
scooby_state_455de3|35|32 137,0,0,0,0,0,0,0,0,0,0,0,0,0,0,137,
scooby_state_455d47|50|1 136,0,0,0,0,0,1,0,0,0,0,0,0,0,0,137,
scooby_state_455d47|39|32 137,0,0,0,0,0,0,0,0,0,0,0,0,0,0,137,
scooby_state_455de3|15|0 136,1,0,0,0,0,0,0,0,0,0,0,0,0,0,137,
scooby_state_455d47|55|32 135,0,0,0,0,0,0,1,0,0,0,0,1,0,0,137,
scooby_state_455c8d|7|0 137,0,0,0,0,0,0,0,0,0,0,0,0,0,0,137,
scooby_state_455d47|13|1 137,0,0,0,0,0,0,0,0,0,0,0,0,0,0,137,
scooby_state_455c8d|11|0 137,0,0,0,0,0,0,0,0,0,0,0,0,0,0,137,
scooby_state_455d75|8|0 137,0,0,0,0,0,0,0,0,0,0,0,0,0,0,137,
scooby_state_455de3|46|1 137,0,0,0,0,0,0,0,0,0,0,0,0,0,0,137,
scooby_state_455c8d|20|0 136,0,1,0,0,0,0,0,0,0,0,0,0,0,0,137,
scooby_state_455de3|5|0 137,0,0,0,0,0,0,0,0,0,0,0,0,0,0,137,
scooby_state_455e34|44|32 137,0,0,0,0,0,0,0,0,0,0,0,0,0,0,137,
scooby_state_455de3|59|1 137,0,0,0,0,0,0,0,0,0,0,0,0,0,0,137,
scooby_state_455d47|56|32 137,0,0,0,0,0,0,0,0,0,0,0,0,0,0,137,
scooby_state_455c8d|2|0 135,0,0,0,1,1,0,0,0,0,0,0,0,0,0,137,
scooby_state_455d75|18|0 136,0,1,0,0,0,0,0,0,0,0,0,0,0,0,137,
scooby_state_455d47|49|32 137,0,0,0,0,0,0,0,0,0,0,0,0,0,0,137,
scooby_state_455de3|51|32 137,0,0,0,0,0,0,0,0,0,0,0,0,0,0,137,
scooby_state_455c8d|10|0 137,0,0,0,0,0,0,0,0,0,0,0,0,0,0,137,
scooby_state_455e34|58|32 137,0,0,0,0,0,0,0,0,0,0,0,0,0,0,137,
scooby_state_455d47|12|1 137,0,0,0,0,0,0,0,0,0,0,0,0,0,0,137,
scooby_state_455de3|58|32 137,0,0,0,0,0,0,0,0,0,0,0,0,0,0,137,
scooby_state_455de3|52|1 137,0,0,0,0,0,0,0,0,0,0,0,0,0,0,137,
scooby_state_455d75|5|0 137,0,0,0,0,0,0,0,0,0,0,0,0,0,0,137,
scooby_state_455de3|2|1 136,0,0,0,0,0,0,0,0,0,0,0,0,0,1,137,
scooby_state_455d47|29|0 137,0,0,0,0,0,0,0,0,0,0,0,0,0,0,137,
scooby_state_455d75|15|0 136,1,0,0,0,0,0,0,0,0,0,0,0,0,0,137,
scooby_state_455d47|30|1 137,0,0,0,0,0,0,0,0,0,0,0,0,0,0,137,
scooby_state_455e34|14|0 137,0,0,0,0,0,0,0,0,0,0,0,0,0,0,137,
scooby_state_455de3|18|0 137,0,0,0,0,0,0,0,0,0,0,0,0,0,0,137,
scooby_state_455d47|62|32 137,0,0,0,0,0,0,0,0,0,0,0,0,0,0,137,
scooby_state_455d47|22|0 137,0,0,0,0,0,0,0,0,0,0,0,0,0,0,137,
scooby_state_455d47|59|32 137,0,0,0,0,0,0,0,0,0,0,0,0,0,0,137,
scooby_state_455de3|49|1 137,0,0,0,0,0,0,0,0,0,0,0,0,0,0,137,
scooby_state_455e34|49|32 137,0,0,0,0,0,0,0,0,0,0,0,0,0,0,137,
scooby_state_455d47|19|0 137,0,0,0,0,0,0,0,0,0,0,0,0,0,0,137,
scooby_state_455c8d|30|0 137,0,0,0,0,0,0,0,0,0,0,0,0,0,0,137,
scooby_state_455c73|1|0 137,0,0,0,0,0,0,0,0,0,0,0,0,0,0,137,
scooby_state_455d75|28|0 137,0,0,0,0,0,0,0,0,0,0,0,0,0,0,137,
scooby_state_455d47|6|1 137,0,0,0,0,0,0,0,0,0,0,0,0,0,0,137,
scooby_state_455c73|15|0 137,0,0,0,0,0,0,0,0,0,0,0,0,0,0,137,
scooby_state_455c8d|15|0 137,0,0,0,0,0,0,0,0,0,0,0,0,0,0,137,
scooby_state_455d75|13|0 137,0,0,0,0,0,0,0,0,0,0,0,0,0,0,137,
scooby_state_455de3|48|32 137,0,0,0,0,0,0,0,0,0,0,0,0,0,0,137,
scooby_state_455de3|26|1 137,0,0,0,0,0,0,0,0,0,0,0,0,0,0,137,
scooby_state_455cc3|29|0 137,0,0,0,0,0,0,0,0,0,0,0,0,0,0,137,
scooby_state_455d47|2|0 137,0,0,0,0,0,0,0,0,0,0,0,0,0,0,137,
scooby_state_455de3|9|1 137,0,0,0,0,0,0,0,0,0,0,0,0,0,0,137,
scooby_state_455d47|5|0 137,0,0,0,0,0,0,0,0,0,0,0,0,0,0,137,
scooby_state_455c73|24|0 137,0,0,0,0,0,0,0,0,0,0,0,0,0,0,137,
scooby_state_455de3|62|32 136,0,0,0,1,0,0,0,0,0,0,0,0,0,0,137,
scooby_state_455de3|45|32 137,0,0,0,0,0,0,0,0,0,0,0,0,0,0,137,
scooby_state_455de3|41|32 137,0,0,0,0,0,0,0,0,0,0,0,0,0,0,137,
scooby_state_455d47|41|1 137,0,0,0,0,0,0,0,0,0,0,0,0,0,0,137,
scooby_state_455cc3|20|0 137,0,0,0,0,0,0,0,0,0,0,0,0,0,0,137,
scooby_state_455d47|45|32 137,0,0,0,0,0,0,0,0,0,0,0,0,0,0,137,
scooby_state_455de3|4|1 136,1,0,0,0,0,0,0,0,0,0,0,0,0,0,137,
scooby_state_455de3|56|1 136,1,0,0,0,0,0,0,0,0,0,0,0,0,0,137,
scooby_state_455e34|30|0 137,0,0,0,0,0,0,0,0,0,0,0,0,0,0,137,
scooby_state_455c73|20|0 137,0,0,0,0,0,0,0,0,0,0,0,0,0,0,137,
scooby_state_455d47|43|1 137,0,0,0,0,0,0,0,0,0,0,0,0,0,0,137,
scooby_state_455de3|39|1 137,0,0,0,0,0,0,0,0,0,0,0,0,0,0,137,
scooby_state_455d75|10|0 137,0,0,0,0,0,0,0,0,0,0,0,0,0,0,137,
scooby_state_455d47|11|0 137,0,0,0,0,0,0,0,0,0,0,0,0,0,0,137,
scooby_state_455de3|8|1 137,0,0,0,0,0,0,0,0,0,0,0,0,0,0,137,
scooby_state_455d47|57|1 136,0,0,0,0,0,0,0,0,1,0,0,0,0,0,137,
scooby_state_455de3|53|1 137,0,0,0,0,0,0,0,0,0,0,0,0,0,0,137,
scooby_state_455de3|40|32 137,0,0,0,0,0,0,0,0,0,0,0,0,0,0,137,
scooby_state_455de3|52|32 137,0,0,0,0,0,0,0,0,0,0,0,0,0,0,137,
scooby_state_455d47|20|1 137,0,0,0,0,0,0,0,0,0,0,0,0,0,0,137,
scooby_state_455de3|36|1 137,0,0,0,0,0,0,0,0,0,0,0,0,0,0,137,
scooby_state_455c73|6|0 137,0,0,0,0,0,0,0,0,0,0,0,0,0,0,137,
scooby_state_455e34|38|32 137,0,0,0,0,0,0,0,0,0,0,0,0,0,0,137,
scooby_state_455d75|20|0 137,0,0,0,0,0,0,0,0,0,0,0,0,0,0,137,
scooby_state_455de3|38|32 137,0,0,0,0,0,0,0,0,0,0,0,0,0,0,137,
scooby_state_455c73|11|0 137,0,0,0,0,0,0,0,0,0,0,0,0,0,0,137,
scooby_state_455e34|5|0 136,1,0,0,0,0,0,0,0,0,0,0,0,0,0,137,
scooby_state_455de3|42|1 137,0,0,0,0,0,0,0,0,0,0,0,0,0,0,137,
scooby_state_455d75|25|0 137,0,0,0,0,0,0,0,0,0,0,0,0,0,0,137,
scooby_state_455e34|42|32 137,0,0,0,0,0,0,0,0,0,0,0,0,0,0,137,
scooby_state_455d47|42|32 137,0,0,0,0,0,0,0,0,0,0,0,0,0,0,137,
scooby_state_455c8d|17|0 137,0,0,0,0,0,0,0,0,0,0,0,0,0,0,137,
scooby_state_455e34|53|32 137,0,0,0,0,0,0,0,0,0,0,0,0,0,0,137,
scooby_state_455e34|34|32 137,0,0,0,0,0,0,0,0,0,0,0,0,0,0,137,
scooby_state_455c73|29|0 137,0,0,0,0,0,0,0,0,0,0,0,0,0,0,137,
scooby_state_455cc3|8|0 137,0,0,0,0,0,0,0,0,0,0,0,0,0,0,137,
scooby_state_455e34|25|0 137,0,0,0,0,0,0,0,0,0,0,0,0,0,0,137,
scooby_state_455d47|52|32 137,0,0,0,0,0,0,0,0,0,0,0,0,0,0,137,
scooby_state_455e34|41|32 136,0,0,0,0,0,1,0,0,0,0,0,0,0,0,137,
scooby_state_455d47|9|0 137,0,0,0,0,0,0,0,0,0,0,0,0,0,0,137,
scooby_state_455cc3|1|0 137,0,0,0,0,0,0,0,0,0,0,0,0,0,0,137,
scooby_state_455d47|3|0 137,0,0,0,0,0,0,0,0,0,0,0,0,0,0,137,
scooby_state_455d47|35|1 136,0,0,0,0,0,0,0,1,0,0,0,0,0,0,137,
scooby_state_455e34|16|0 135,0,0,0,0,0,0,1,0,0,0,0,0,1,0,137,
scooby_state_455de3|63|32 137,0,0,0,0,0,0,0,0,0,0,0,0,0,0,137,
scooby_state_455d47|4|1 137,0,0,0,0,0,0,0,0,0,0,0,0,0,0,137,
scooby_state_455d47|36|32 136,0,0,0,0,0,0,0,0,0,0,1,0,0,0,137,
scooby_state_455de3|32|32 137,0,0,0,0,0,0,0,0,0,0,0,0,0,0,137,
scooby_state_455de3|1|0 137,0,0,0,0,0,0,0,0,0,0,0,0,0,0,137,
scooby_state_455d75|23|0 137,0,0,0,0,0,0,0,0,0,0,0,0,0,0,137,
scooby_state_455cc3|28|0 137,0,0,0,0,0,0,0,0,0,0,0,0,0,0,137,
scooby_state_455c8d|25|0 136,0,0,1,0,0,0,0,0,0,0,0,0,0,0,137,
scooby_state_455de3|6|1 134,1,0,0,0,0,0,0,0,0,1,0,0,0,1,137,
scooby_state_455de3|34|32 137,0,0,0,0,0,0,0,0,0,0,0,0,0,0,137,
scooby_state_455e34|3|0 137,0,0,0,0,0,0,0,0,0,0,0,0,0,0,137,
scooby_state_455d47|38|32 137,0,0,0,0,0,0,0,0,0,0,0,0,0,0,137,
scooby_state_455c73|30|0 137,0,0,0,0,0,0,0,0,0,0,0,0,0,0,137,
scooby_state_455d47|39|1 137,0,0,0,0,0,0,0,0,0,0,0,0,0,0,137,
scooby_state_455de3|35|1 137,0,0,0,0,0,0,0,0,0,0,0,0,0,0,137,
scooby_state_455d47|7|0 137,0,0,0,0,0,0,0,0,0,0,0,0,0,0,137,
scooby_state_455c8d|12|0 137,0,0,0,0,0,0,0,0,0,0,0,0,0,0,137,
scooby_state_455de3|3|0 136,0,0,0,0,0,0,1,0,0,0,0,0,0,0,137,
scooby_state_455d47|8|1 136,0,0,0,0,0,0,0,1,0,0,0,0,0,0,137,
scooby_state_455cc3|14|0 135,0,0,1,0,0,0,0,0,0,0,0,1,0,0,137,
scooby_state_455d47|40|32 137,0,0,0,0,0,0,0,0,0,0,0,0,0,0,137,
scooby_state_455de3|36|32 136,1,0,0,0,0,0,0,0,0,0,0,0,0,0,137,
scooby_state_455de3|37|1 136,0,0,1,0,0,0,0,0,0,0,0,0,0,0,137,
scooby_state_455d47|10|1 137,0,0,0,0,0,0,0,0,0,0,0,0,0,0,137,
scooby_state_455e34|28|0 137,0,0,0,0,0,0,0,0,0,0,0,0,0,0,137,
scooby_state_455e34|11|0 137,0,0,0,0,0,0,0,0,0,0,0,0,0,0,137,
scooby_state_455c8d|16|0 135,0,0,0,0,0,0,2,0,0,0,0,0,0,0,137,
scooby_state_455e34|50|32 137,0,0,0,0,0,0,0,0,0,0,0,0,0,0,137,
scooby_state_455d47|60|1 137,0,0,0,0,0,0,0,0,0,0,0,0,0,0,137,
scooby_state_455de3|25|0 137,0,0,0,0,0,0,0,0,0,0,0,0,0,0,137,
scooby_state_455e34|52|32 136,0,0,0,0,0,0,0,0,0,0,0,0,0,0,136,
scooby_state_455e34|36|32 135,0,0,0,0,0,0,0,0,0,0,0,0,1,0,136,
scooby_state_455e34|33|32 136,0,0,0,0,0,0,0,0,0,0,0,0,0,0,136,
scooby_state_455e34|61|32 135,0,0,0,1,0,0,0,0,0,0,0,0,0,0,136,
scooby_state_455e34|8|0 136,0,0,0,0,0,0,0,0,0,0,0,0,0,0,136,
scooby_state_455e34|47|32 136,0,0,0,0,0,0,0,0,0,0,0,0,0,0,136,
scooby_state_455cc3|23|0 136,0,0,0,0,0,0,0,0,0,0,0,0,0,0,136,
scooby_state_455e34|19|0 135,0,0,0,0,0,0,0,0,0,0,0,0,0,0,135,
scooby_state_455df7|0|0 117,0,0,0,0,0,0,0,0,0,0,0,0,0,0,117,
scooby_state_455df7|12|0 103,0,0,0,1,1,0,0,0,0,0,0,0,0,0,105,
scooby_state_455cc3|44|32 105,0,0,0,0,0,0,0,0,0,0,0,0,0,0,105,
scooby_state_455d75|40|32 103,1,0,0,0,0,0,0,0,0,0,0,0,0,0,104,
scooby_state_455c73|34|32 104,0,0,0,0,0,0,0,0,0,0,0,0,0,0,104,
scooby_state_455cc3|57|32 104,0,0,0,0,0,0,0,0,0,0,0,0,0,0,104,
scooby_state_455c73|36|32 104,0,0,0,0,0,0,0,0,0,0,0,0,0,0,104,
scooby_state_455cc3|34|32 104,0,0,0,0,0,0,0,0,0,0,0,0,0,0,104,
scooby_state_455c73|44|32 104,0,0,0,0,0,0,0,0,0,0,0,0,0,0,104,
scooby_state_455c73|43|32 103,0,0,1,0,0,0,0,0,0,0,0,0,0,0,104,
scooby_state_455c8d|32|32 104,0,0,0,0,0,0,0,0,0,0,0,0,0,0,104,
scooby_state_455c8d|37|32 104,0,0,0,0,0,0,0,0,0,0,0,0,0,0,104,
scooby_state_455c8d|62|32 104,0,0,0,0,0,0,0,0,0,0,0,0,0,0,104,
scooby_state_455c8d|34|32 104,0,0,0,0,0,0,0,0,0,0,0,0,0,0,104,
scooby_state_455c73|45|32 103,1,0,0,0,0,0,0,0,0,0,0,0,0,0,104,
scooby_state_455c73|62|32 104,0,0,0,0,0,0,0,0,0,0,0,0,0,0,104,
scooby_state_455c8d|42|32 102,1,0,0,0,0,0,1,0,0,0,0,0,0,0,104,
scooby_state_455d75|60|32 104,0,0,0,0,0,0,0,0,0,0,0,0,0,0,104,
scooby_state_455c73|54|32 103,0,0,0,1,0,0,0,0,0,0,0,0,0,0,104,
scooby_state_455c8d|57|32 104,0,0,0,0,0,0,0,0,0,0,0,0,0,0,104,
scooby_state_455d75|34|32 104,0,0,0,0,0,0,0,0,0,0,0,0,0,0,104,
[...]
scooby_state_455adc|63|1 9,0,0,0,0,0,0,0,0,0,0,0,0,0,0,9,
scooby_state_455ae2|59|1 9,0,0,0,0,0,0,0,0,0,0,0,0,0,0,9,
scooby_state_455d9d|11|1 9,0,0,0,0,0,0,0,0,0,0,0,0,0,0,9,
scooby_state_455d9d|8|1 9,0,0,0,0,0,0,0,0,0,0,0,0,0,0,9,
scooby_state_455adc|2|1 9,0,0,0,0,0,0,0,0,0,0,0,0,0,0,9,
scooby_state_455ae2|57|1 9,0,0,0,0,0,0,0,0,0,0,0,0,0,0,9,
scooby_state_455db2|2|1 9,0,0,0,0,0,0,0,0,0,0,0,0,0,0,9,
scooby_state_455ae2|56|1 9,0,0,0,0,0,0,0,0,0,0,0,0,0,0,9,
scooby_state_455f20|48|3 9,0,0,0,0,0,0,0,0,0,0,0,0,0,0,9,
scooby_state_455adc|61|1 9,0,0,0,0,0,0,0,0,0,0,0,0,0,0,9,
scooby_state_455c79|8|1 9,0,0,0,0,0,0,0,0,0,0,0,0,0,0,9,
scooby_state_455adc|0|0 9,0,0,0,0,0,0,0,0,0,0,0,0,0,0,9,
scooby_state_455d9d|7|1 9,0,0,0,0,0,0,0,0,0,0,0,0,0,0,9,
scooby_state_455ae2|62|1 9,0,0,0,0,0,0,0,0,0,0,0,0,0,0,9,
scooby_state_455c79|40|31 9,0,0,0,0,0,0,0,0,0,0,0,0,0,0,9,
scooby_state_455931|46|-1 7,1,0,0,0,0,0,0,0,0,1,0,0,0,0,9,
scooby_state_455adc|4|0 9,0,0,0,0,0,0,0,0,0,0,0,0,0,0,9,
scooby_state_455db2|3|1 9,0,0,0,0,0,0,0,0,0,0,0,0,0,0,9,
scooby_state_455d9d|12|1 9,0,0,0,0,0,0,0,0,0,0,0,0,0,0,9,
scooby_state_455f13|45|0 9,0,0,0,0,0,0,0,0,0,0,0,0,0,0,9,
scooby_state_455ae2|58|1 9,0,0,0,0,0,0,0,0,0,0,0,0,0,0,9,
scooby_state_455ae2|63|1 8,0,0,0,0,0,1,0,0,0,0,0,0,0,0,9,
scooby_state_455d9d|9|1 9,0,0,0,0,0,0,0,0,0,0,0,0,0,0,9,
scooby_state_455c79|58|31 8,0,0,0,0,0,0,0,0,0,0,0,0,0,0,8,
scooby_state_455c79|1|1 8,0,0,0,0,0,0,0,0,0,0,0,0,0,0,8,
scooby_state_455c79|49|31 8,0,0,0,0,0,0,0,0,0,0,0,0,0,0,8,
scooby_state_455c79|23|1 8,0,0,0,0,0,0,0,0,0,0,0,0,0,0,8,
scooby_state_455c79|15|1 7,0,0,0,0,0,0,0,0,0,0,0,0,0,0,7,
scooby_state_455c79|2|1 7,0,0,0,0,0,0,0,0,0,0,0,0,0,0,7,
scooby_state_455c79|16|1 7,0,0,0,0,0,0,0,0,0,0,0,0,0,0,7,
scooby_state_455c79|28|1 7,0,0,0,0,0,0,0,0,0,0,0,0,0,0,7,
scooby_state_455c79|3|1 6,0,0,0,0,0,0,0,0,0,0,0,0,0,0,6,
scooby_state_455c79|10|1 6,0,0,0,0,0,0,0,0,0,0,0,0,0,0,6,
scooby_state_455c79|55|1 6,0,0,0,0,0,0,0,0,0,0,0,0,0,0,6,
scooby_state_455c79|5|1 6,0,0,0,0,0,0,0,0,0,0,0,0,0,0,6,
scooby_state_455c79|38|1 6,0,0,0,0,0,0,0,0,0,0,0,0,0,0,6,
scooby_state_455c79|19|1 6,0,0,0,0,0,0,0,0,0,0,0,0,0,0,6,
scooby_state_455c79|27|1 5,0,0,0,0,0,0,0,0,0,0,0,0,0,0,5,
scooby_state_455c79|9|1 5,0,0,0,0,0,0,0,0,0,0,0,0,0,0,5,
scooby_state_455c79|20|1 5,0,0,0,0,0,0,0,0,0,0,0,0,0,0,5,
scooby_state_455c79|14|1 5,0,0,0,0,0,0,0,0,0,0,0,0,0,0,5,
scooby_state_455c79|6|1 5,0,0,0,0,0,0,0,0,0,0,0,0,0,0,5,
scooby_state_455c79|48|1 5,0,0,0,0,0,0,0,0,0,0,0,0,0,0,5,
scooby_state_455c79|26|1 5,0,0,0,0,0,0,0,0,0,0,0,0,0,0,5,
scooby_state_455c79|62|1 4,0,0,0,0,0,0,0,0,0,0,0,0,0,0,4,
scooby_state_455c79|24|1 4,0,0,0,0,0,0,0,0,0,0,0,0,0,0,4,
scooby_state_455c79|11|1 4,0,0,0,0,0,0,0,0,0,0,0,0,0,0,4,
scooby_state_455c79|56|1 4,0,0,0,0,0,0,0,0,0,0,0,0,0,0,4,
scooby_state_455c79|39|1 4,0,0,0,0,0,0,0,0,0,0,0,0,0,0,4,
scooby_state_455c79|32|1 4,0,0,0,0,0,0,0,0,0,0,0,0,0,0,4,
scooby_state_455c79|45|1 4,0,0,0,0,0,0,0,0,0,0,0,0,0,0,4,
scooby_state_455c79|17|1 4,0,0,0,0,0,0,0,0,0,0,0,0,0,0,4,
scooby_state_455c79|47|1 4,0,0,0,0,0,0,0,0,0,0,0,0,0,0,4,
scooby_state_455c79|7|1 3,0,0,0,0,0,0,0,0,0,0,0,0,0,0,3,
scooby_state_455c79|49|1 3,0,0,0,0,0,0,0,0,0,0,0,0,0,0,3,
scooby_state_455c79|57|1 3,0,0,0,0,0,0,0,0,0,0,0,0,0,0,3,
scooby_state_455c79|63|1 3,0,0,0,0,0,0,0,0,0,0,0,0,0,0,3,
scooby_state_455c79|53|1 3,0,0,0,0,0,0,0,0,0,0,0,0,0,0,3,
scooby_state_455c79|13|1 3,0,0,0,0,0,0,0,0,0,0,0,0,0,0,3,
scooby_state_455c79|37|1 3,0,0,0,0,0,0,0,0,0,0,0,0,0,0,3,
scooby_state_455c79|40|1 3,0,0,0,0,0,0,0,0,0,0,0,0,0,0,3,
scooby_state_455c79|18|1 3,0,0,0,0,0,0,0,0,0,0,0,0,0,0,3,
scooby_state_455c79|54|1 3,0,0,0,0,0,0,0,0,0,0,0,0,0,0,3,
scooby_state_455c79|21|1 3,0,0,0,0,0,0,0,0,0,0,0,0,0,0,3,
scooby_state_455c79|30|1 3,0,0,0,0,0,0,0,0,0,0,0,0,0,0,3,
scooby_state_455c79|43|1 3,0,0,0,0,0,0,0,0,0,0,0,0,0,0,3,
scooby_state_455c79|31|1 3,0,0,0,0,0,0,0,0,0,0,0,0,0,0,3,
scooby_state_455c79|4|1 3,0,0,0,0,0,0,0,0,0,0,0,0,0,0,3,
scooby_state_455c79|60|1 3,0,0,0,0,0,0,0,0,0,0,0,0,0,0,3,
scooby_state_455c79|34|1 2,0,0,0,0,0,0,0,0,0,0,0,0,0,0,2,
scooby_state_455c79|59|1 2,0,0,0,0,0,0,0,0,0,0,0,0,0,0,2,
scooby_state_455c79|46|1 2,0,0,0,0,0,0,0,0,0,0,0,0,0,0,2,
scooby_state_455c79|50|1 2,0,0,0,0,0,0,0,0,0,0,0,0,0,0,2,
scooby_state_455c79|51|1 2,0,0,0,0,0,0,0,0,0,0,0,0,0,0,2,
scooby_state_455c79|35|1 2,0,0,0,0,0,0,0,0,0,0,0,0,0,0,2,
scooby_state_455c79|29|1 2,0,0,0,0,0,0,0,0,0,0,0,0,0,0,2,
scooby_state_455c79|44|1 2,0,0,0,0,0,0,0,0,0,0,0,0,0,0,2,
scooby_state_455c79|52|1 2,0,0,0,0,0,0,0,0,0,0,0,0,0,0,2,
scooby_state_455c79|25|1 2,0,0,0,0,0,0,0,0,0,0,0,0,0,0,2,
scooby_state_455d24|14|1 1,0,0,0,0,0,0,0,0,0,0,0,0,0,0,1,
scooby_state_455d87|31|0 1,0,0,0,0,0,0,0,0,0,0,0,0,0,0,1,
scooby_state_455cf9|39|29 1,0,0,0,0,0,0,0,0,0,0,0,0,0,0,1,
scooby_state_455d6f|35|29 1,0,0,0,0,0,0,0,0,0,0,0,0,0,0,1,
scooby_state_455ceb|51|0 1,0,0,0,0,0,0,0,0,0,0,0,0,0,0,1,
scooby_state_455d39|63|1 1,0,0,0,0,0,0,0,0,0,0,0,0,0,0,1,
scooby_state_455b42|45|1 1,0,0,0,0,0,0,0,0,0,0,0,0,0,0,1,
scooby_state_455d47|35|0 1,0,0,0,0,0,0,0,0,0,0,0,0,0,0,1,
scooby_state_455e34|37|0 1,0,0,0,0,0,0,0,0,0,0,0,0,0,0,1,
scooby_state_455c87|13|0 1,0,0,0,0,0,0,0,0,0,0,0,0,0,0,1,
scooby_state_455c79|33|1 1,0,0,0,0,0,0,0,0,0,0,0,0,0,0,1,
scooby_state_455d39|36|1 1,0,0,0,0,0,0,0,0,0,0,0,0,0,0,1,
scooby_state_455d31|9|0 1,0,0,0,0,0,0,0,0,0,0,0,0,0,0,1,
scooby_state_455d39|35|32 1,0,0,0,0,0,0,0,0,0,0,0,0,0,0,1,
scooby_state_455d24|15|-33 1,0,0,0,0,0,0,0,0,0,0,0,0,0,0,1,
scooby_state_455de3|52|33 1,0,0,0,0,0,0,0,0,0,0,0,0,0,0,1,
scooby_state_455a80|52|-1 1,0,0,0,0,0,0,0,0,0,0,0,0,0,0,1,
scooby_state_455d24|37|1 1,0,0,0,0,0,0,0,0,0,0,0,0,0,0,1,
scooby_state_455cbe|2|-61 1,0,0,0,0,0,0,0,0,0,0,0,0,0,0,1,
scooby_state_455d39|9|-32 1,0,0,0,0,0,0,0,0,0,0,0,0,0,0,1,
scooby_state_455cbe|1|-30 1,0,0,0,0,0,0,0,0,0,0,0,0,0,0,1,
scooby_state_455d8d|57|1 1,0,0,0,0,0,0,0,0,0,0,0,0,0,0,1,
scooby_state_455c60|49|-9 1,0,0,0,0,0,0,0,0,0,0,0,0,0,0,1,
scooby_state_455d47|45|0 1,0,0,0,0,0,0,0,0,0,0,0,0,0,0,1,
scooby_state_455bc3|47|1 1,0,0,0,0,0,0,0,0,0,0,0,0,0,0,1,
scooby_state_455cf1|55|0 1,0,0,0,0,0,0,0,0,0,0,0,0,0,0,1,
scooby_state_455e81|58|1 1,0,0,0,0,0,0,0,0,0,0,0,0,0,0,1,
scooby_state_455c8d|47|33 1,0,0,0,0,0,0,0,0,0,0,0,0,0,0,1,
scooby_state_455d24|39|1 1,0,0,0,0,0,0,0,0,0,0,0,0,0,0,1,
scooby_state_455de3|49|33 1,0,0,0,0,0,0,0,0,0,0,0,0,0,0,1,
scooby_state_455de3|42|33 1,0,0,0,0,0,0,0,0,0,0,0,0,0,0,1,
scooby_state_455a70|53|-5 1,0,0,0,0,0,0,0,0,0,0,0,0,0,0,1,
scooby_state_455d39|39|0 1,0,0,0,0,0,0,0,0,0,0,0,0,0,0,1,
scooby_state_455c79|36|1 1,0,0,0,0,0,0,0,0,0,0,0,0,0,0,1,
scooby_state_455c79|12|1 1,0,0,0,0,0,0,0,0,0,0,0,0,0,0,1,
scooby_state_455de3|51|33 1,0,0,0,0,0,0,0,0,0,0,0,0,0,0,1,
scooby_state_455cc3|61|0 1,0,0,0,0,0,0,0,0,0,0,0,0,0,0,1,
scooby_state_455d07|44|0 1,0,0,0,0,0,0,0,0,0,0,0,0,0,0,1,
scooby_state_455c87|16|0 1,0,0,0,0,0,0,0,0,0,0,0,0,0,0,1,
scooby_state_455d24|17|-33 1,0,0,0,0,0,0,0,0,0,0,0,0,0,0,1,
scooby_state_455c8d|51|34 1,0,0,0,0,0,0,0,0,0,0,0,0,0,0,1,
scooby_state_455d47|55|0 1,0,0,0,0,0,0,0,0,0,0,0,0,0,0,1,
scooby_state_455d39|55|32 1,0,0,0,0,0,0,0,0,0,0,0,0,0,0,1,
scooby_state_455d39|19|-32 1,0,0,0,0,0,0,0,0,0,0,0,0,0,0,1,
scooby_state_455cc3|56|0 1,0,0,0,0,0,0,0,0,0,0,0,0,0,0,1,
scooby_state_455e34|33|0 1,0,0,0,0,0,0,0,0,0,0,0,0,0,0,1,
scooby_state_455a70|41|-18 1,0,0,0,0,0,0,0,0,0,0,0,0,0,0,1,
scooby_state_455e68|58|1 1,0,0,0,0,0,0,0,0,0,0,0,0,0,0,1,
scooby_state_455d39|56|1 1,0,0,0,0,0,0,0,0,0,0,0,0,0,0,1,
scooby_state_455d24|18|-33 1,0,0,0,0,0,0,0,0,0,0,0,0,0,0,1,
scooby_state_455a80|42|1 1,0,0,0,0,0,0,0,0,0,0,0,0,0,0,1,
scooby_state_455ceb|45|0 1,0,0,0,0,0,0,0,0,0,0,0,0,0,0,1,
scooby_state_455d24|62|1 1,0,0,0,0,0,0,0,0,0,0,0,0,0,0,1,
scooby_state_455dc7|55|1 1,0,0,0,0,0,0,0,0,0,0,0,0,0,0,1,
scooby_state_455de3|48|33 1,0,0,0,0,0,0,0,0,0,0,0,0,0,0,1,
scooby_state_455d87|30|29 1,0,0,0,0,0,0,0,0,0,0,0,0,0,0,1,
scooby_state_455ac0|43|1 1,0,0,0,0,0,0,0,0,0,0,0,0,0,0,1,
scooby_state_455c8d|50|33 1,0,0,0,0,0,0,0,0,0,0,0,0,0,0,1,
scooby_state_455e4e|63|0 1,0,0,0,0,0,0,0,0,0,0,0,0,0,0,1,
scooby_state_455e63|10|-31 1,0,0,0,0,0,0,0,0,0,0,0,0,0,0,1,
scooby_state_455d39|45|32 1,0,0,0,0,0,0,0,0,0,0,0,0,0,0,1,
scooby_state_455c79|58|1 1,0,0,0,0,0,0,0,0,0,0,0,0,0,0,1,
scooby_state_455e63|11|5 0,1,0,0,0,0,0,0,0,0,0,0,0,0,0,1,
scooby_state_455d3f|56|1 1,0,0,0,0,0,0,0,0,0,0,0,0,0,0,1,
scooby_state_455ceb|44|-1 1,0,0,0,0,0,0,0,0,0,0,0,0,0,0,1,
scooby_state_455901|36|1 1,0,0,0,0,0,0,0,0,0,0,0,0,0,0,1,
scooby_state_455d24|40|1 1,0,0,0,0,0,0,0,0,0,0,0,0,0,0,1,
scooby_state_455ae2|0|-60 1,0,0,0,0,0,0,0,0,0,0,0,0,0,0,1,
scooby_state_455e34|42|0 1,0,0,0,0,0,0,0,0,0,0,0,0,0,0,1,
scooby_state_455c87|61|32 1,0,0,0,0,0,0,0,0,0,0,0,0,0,0,1,
scooby_state_455c06|48|1 1,0,0,0,0,0,0,0,0,0,0,0,0,0,0,1,
scooby_state_455c87|50|1 1,0,0,0,0,0,0,0,0,0,0,0,0,0,0,1,
scooby_state_455db2|8|0 1,0,0,0,0,0,0,0,0,0,0,0,0,0,0,1,
scooby_state_455c87|11|0 1,0,0,0,0,0,0,0,0,0,0,0,0,0,0,1,
scooby_state_455c79|61|1 1,0,0,0,0,0,0,0,0,0,0,0,0,0,0,1,
scooby_state_455c8d|44|33 1,0,0,0,0,0,0,0,0,0,0,0,0,0,0,1,
scooby_state_4559c7|39|1 1,0,0,0,0,0,0,0,0,0,0,0,0,0,0,1,
scooby_state_455d39|18|0 1,0,0,0,0,0,0,0,0,0,0,0,0,0,0,1,
scooby_state_4558c0|35|1 1,0,0,0,0,0,0,0,0,0,0,0,0,0,0,1,
scooby_state_455cc3|41|0 1,0,0,0,0,0,0,0,0,0,0,0,0,0,0,1,
scooby_state_455880|34|-26 1,0,0,0,0,0,0,0,0,0,0,0,0,0,0,1,
scooby_state_455d39|52|32 1,0,0,0,0,0,0,0,0,0,0,0,0,0,0,1,
scooby_state_455f05|60|0 1,0,0,0,0,0,0,0,0,0,0,0,0,0,0,1,
scooby_state_455e34|57|0 1,0,0,0,0,0,0,0,0,0,0,0,0,0,0,1,
scooby_state_455d87|54|1 1,0,0,0,0,0,0,0,0,0,0,0,0,0,0,1,
scooby_state_455d75|59|0 1,0,0,0,0,0,0,0,0,0,0,0,0,0,0,1,
scooby_state_455d03|52|1 1,0,0,0,0,0,0,0,0,0,0,0,0,0,0,1,
scooby_state_455e78|6|-30 1,0,0,0,0,0,0,0,0,0,0,0,0,0,0,1,
scooby_state_455c87|38|31 1,0,0,0,0,0,0,0,0,0,0,0,0,0,0,1,
scooby_state_455d47|62|0 1,0,0,0,0,0,0,0,0,0,0,0,0,0,0,1,
scooby_state_455c8d|49|33 1,0,0,0,0,0,0,0,0,0,0,0,0,0,0,1,
scooby_state_455d39|15|0 0,1,0,0,0,0,0,0,0,0,0,0,0,0,0,1,
scooby_state_455d47|52|0 1,0,0,0,0,0,0,0,0,0,0,0,0,0,0,1,
scooby_state_455945|37|1 1,0,0,0,0,0,0,0,0,0,0,0,0,0,0,1,
scooby_state_455c79|22|1 1,0,0,0,0,0,0,0,0,0,0,0,0,0,0,1,
scooby_state_455c87|33|32 1,0,0,0,0,0,0,0,0,0,0,0,0,0,0,1,
scooby_state_455987|38|1 1,0,0,0,0,0,0,0,0,0,0,0,0,0,0,1,
scooby_state_455d39|8|0 1,0,0,0,0,0,0,0,0,0,0,0,0,0,0,1,
scooby_state_455d39|26|-32 1,0,0,0,0,0,0,0,0,0,0,0,0,0,0,1,
scooby_state_455d24|34|1 1,0,0,0,0,0,0,0,0,0,0,0,0,0,0,1,
scooby_state_455d4d|8|-1 1,0,0,0,0,0,0,0,0,0,0,0,0,0,0,1,
scooby_state_455d39|16|-32 1,0,0,0,0,0,0,0,0,0,0,0,0,0,0,1,
scooby_state_455a02|40|1 1,0,0,0,0,0,0,0,0,0,0,0,0,0,0,1,
scooby_state_455c79|41|1 1,0,0,0,0,0,0,0,0,0,0,0,0,0,0,1,
scooby_state_455d24|12|-33 1,0,0,0,0,0,0,0,0,0,0,0,0,0,0,1,
scooby_state_455c87|58|32 1,0,0,0,0,0,0,0,0,0,0,0,0,0,0,1,
scooby_state_455de3|59|33 1,0,0,0,0,0,0,0,0,0,0,0,0,0,0,1,
scooby_state_455d24|57|1 1,0,0,0,0,0,0,0,0,0,0,0,0,0,0,1,
scooby_state_455cde|61|6 1,0,0,0,0,0,0,0,0,0,0,0,0,0,0,1,
scooby_state_455cc3|43|0 1,0,0,0,0,0,0,0,0,0,0,0,0,0,0,1,
scooby_state_455d1a|7|0 1,0,0,0,0,0,0,0,0,0,0,0,0,0,0,1,
scooby_state_455d24|49|0 1,0,0,0,0,0,0,0,0,0,0,0,0,0,0,1,
scooby_state_455de3|58|33 1,0,0,0,0,0,0,0,0,0,0,0,0,0,0,1,
scooby_state_455e34|52|0 1,0,0,0,0,0,0,0,0,0,0,0,0,0,0,1,
scooby_state_455ae8|50|-2 1,0,0,0,0,0,0,0,0,0,0,0,0,0,0,1,
scooby_state_455d24|56|1 1,0,0,0,0,0,0,0,0,0,0,0,0,0,0,1,
scooby_state_455c87|36|32 1,0,0,0,0,0,0,0,0,0,0,0,0,0,0,1,
scooby_state_455ec3|59|9 1,0,0,0,0,0,0,0,0,0,0,0,0,0,0,1,
scooby_state_455d39|25|0 1,0,0,0,0,0,0,0,0,0,0,0,0,0,0,1,
scooby_state_455afc|51|1 1,0,0,0,0,0,0,0,0,0,0,0,0,0,0,1,
scooby_state_455c60|8|0 1,0,0,0,0,0,0,0,0,0,0,0,0,0,0,1,
scooby_state_455d39|46|1 1,0,0,0,0,0,0,0,0,0,0,0,0,0,0,1,
scooby_state_455d39|62|32 1,0,0,0,0,0,0,0,0,0,0,0,0,0,0,1,
scooby_state_455e46|57|1 1,0,0,0,0,0,0,0,0,0,0,0,0,0,0,1,
scooby_state_455cc3|36|0 1,0,0,0,0,0,0,0,0,0,0,0,0,0,0,1,
scooby_state_455b86|46|1 1,0,0,0,0,0,0,0,0,0,0,0,0,0,0,1,
scooby_state_455cde|60|0 1,0,0,0,0,0,0,0,0,0,0,0,0,0,0,1,
scooby_state_455d39|53|1 0,1,0,0,0,0,0,0,0,0,0,0,0,0,0,1,
scooby_state_455d39|7|-1 1,0,0,0,0,0,0,0,0,0,0,0,0,0,0,1,
scooby_state_455c87|17|-1 1,0,0,0,0,0,0,0,0,0,0,0,0,0,0,1,
scooby_state_455e78|7|6 1,0,0,0,0,0,0,0,0,0,0,0,0,0,0,1,
scooby_state_455cf9|40|0 1,0,0,0,0,0,0,0,0,0,0,0,0,0,0,1,
scooby_state_455b04|44|1 1,0,0,0,0,0,0,0,0,0,0,0,0,0,0,1,
scooby_state_455dd1|7|0 1,0,0,0,0,0,0,0,0,0,0,0,0,0,0,1,
scooby_state_455e04|56|1 1,0,0,0,0,0,0,0,0,0,0,0,0,0,0,1,
scooby_state_455d24|59|1 1,0,0,0,0,0,0,0,0,0,0,0,0,0,0,1,
scooby_state_455de3|40|33 1,0,0,0,0,0,0,0,0,0,0,0,0,0,0,1,
scooby_state_455cc3|32|0 1,0,0,0,0,0,0,0,0,0,0,0,0,0,0,1,
scooby_state_455cf9|41|1 1,0,0,0,0,0,0,0,0,0,0,0,0,0,0,1,
scooby_state_455e2e|3|0 1,0,0,0,0,0,0,0,0,0,0,0,0,0,0,1,
scooby_state_455de3|41|33 1,0,0,0,0,0,0,0,0,0,0,0,0,0,0,1,
scooby_state_455c87|55|32 1,0,0,0,0,0,0,0,0,0,0,0,0,0,0,1,
scooby_state_455d6f|36|0 1,0,0,0,0,0,0,0,0,0,0,0,0,0,0,1,
scooby_state_455b3a|54|3 1,0,0,0,0,0,0,0,0,0,0,0,0,0,0,1,

scooby_action_0_deg_dist 0,30,0,0,0,0,0,0,0,0,0,0,0,0,0,0,
scooby_action_-6_deg_dist 0,23,0,0,0,0,0,0,0,0,0,0,0,0,0,0,
scooby_action_4_deg_dist 0,39,1,0,0,0,0,0,0,0,0,0,0,0,0,0,
scooby_action_1_deg_dist 0,107456,44433,0,7739,0,39750,0,0,0,0,0,0,0,0,0,
scooby_action_30_deg_dist 0,46,0,0,0,0,0,0,0,0,0,0,0,0,0,0,
scooby_action_5_deg_dist 0,41,1,0,0,0,0,0,0,0,0,0,0,0,0,0,
scooby_action_10_deg_dist 0,51,0,0,0,0,0,0,0,0,0,0,0,0,0,0,
scooby_action_3_deg_dist 0,60,2,0,0,0,0,0,0,0,0,0,0,0,0,0,
scooby_action_32_deg_dist 0,11815,0,0,0,0,0,0,0,0,0,0,0,0,0,0,
scooby_action_11_deg_dist 0,42,3,0,0,0,0,0,0,0,0,0,0,0,0,0,
scooby_action_12_deg_dist 0,39,0,0,0,0,0,0,0,0,0,0,0,0,0,0,
scooby_action_22_deg_dist 0,49,1,0,0,0,0,0,0,0,0,0,0,0,0,0,
scooby_action_23_deg_dist 0,42,0,0,0,0,0,0,0,0,0,0,0,0,0,0,
scooby_action_-1_deg_dist 0,28,0,0,0,0,0,0,0,0,0,0,0,0,0,0,
scooby_action_-3_deg_dist 0,21,0,0,0,0,0,0,0,0,0,0,0,0,0,0,

scooby_track_called 211712
scooby_track_same_address 1581
scooby_track_evict 209875

scooby_reward_demand_called 211712
scooby_reward_demand_pt_not_found 72846
scooby_reward_demand_pt_found 138866
scooby_reward_demand_pt_found_total 138866
scooby_reward_demand_has_reward 0
scooby_reward_train_called 62039
scooby_reward_assign_reward_called 210039
scooby_reward_no_pref 30
scooby_reward_incorrect 62009
scooby_reward_correct_untimely 49659
scooby_reward_correct_timely 89207
scooby_reward_out_of_bounds 9134
scooby_reward_tracker_hit 0

scooby_reward_none_low_bw 30
scooby_reward_none_high_bw 0
scooby_reward_incorrect_low_bw 62009
scooby_reward_incorrect_high_bw 0
scooby_reward_correct_untimely_low_bw 49659
scooby_reward_correct_untimely_high_bw 0
scooby_reward_correct_timely_low_bw 89207
scooby_reward_correct_timely_high_bw 0
scooby_reward_out_of_bounds_low_bw 9134
scooby_reward_out_of_bounds_high_bw 0
scooby_reward_tracker_hit_low_bw 0
scooby_reward_tracker_hit_high_bw 0

scooby_reward_1 0,61265,49645,83710,3102,0,
scooby_reward_3 0,55,4,1,1,0,
scooby_reward_4 0,32,3,3,2,0,
scooby_reward_5 0,34,5,2,1,0,
scooby_reward_10 0,30,0,6,15,0,
scooby_reward_11 0,36,0,6,3,0,
scooby_reward_12 0,25,0,2,12,0,
scooby_reward_22 0,32,0,0,18,0,
scooby_reward_23 0,24,0,0,18,0,
scooby_reward_30 0,27,0,0,19,0,
scooby_reward_32 0,393,2,5477,5942,0,
scooby_reward_-1 0,20,0,0,0,0,
scooby_reward_-3 0,18,0,0,0,0,
scooby_reward_-6 0,18,0,0,1,0,
scooby_reward_0 30,0,0,0,0,0,

scooby_train_called 209874
scooby_train_compute_reward 62039

scooby_register_fill_called 231924
scooby_register_fill_set 138665
scooby_register_fill_set_total 138665

scooby_register_prefetch_hit_called 212161
scooby_register_prefetch_hit_set 59116
scooby_register_prefetch_hit_set_total 59116

scooby_pref_issue_scooby 448684

learning_engine_featurewise.action.called 211712
learning_engine_featurewise.action.explore 404
learning_engine_featurewise.action.exploit 211308
learning_engine_featurewise.action.fallback 0
learning_engine_featurewise.action.dyn_fallback_saved_bw 0
learning_engine_featurewise.action.dyn_fallback_saved_bw_acc 31
learning_engine_featurewise.action.index_1_explored 27
learning_engine_featurewise.action.index_1_exploited 199351
learning_engine_featurewise.action.index_3_explored 31
learning_engine_featurewise.action.index_3_exploited 31
learning_engine_featurewise.action.index_4_explored 23
learning_engine_featurewise.action.index_4_exploited 17
learning_engine_featurewise.action.index_5_explored 26
learning_engine_featurewise.action.index_5_exploited 16
learning_engine_featurewise.action.index_10_explored 36
learning_engine_featurewise.action.index_10_exploited 15
learning_engine_featurewise.action.index_11_explored 27
learning_engine_featurewise.action.index_11_exploited 18
learning_engine_featurewise.action.index_12_explored 23
learning_engine_featurewise.action.index_12_exploited 16
learning_engine_featurewise.action.index_22_explored 33
learning_engine_featurewise.action.index_22_exploited 17
learning_engine_featurewise.action.index_23_explored 26
learning_engine_featurewise.action.index_23_exploited 16
learning_engine_featurewise.action.index_30_explored 30
learning_engine_featurewise.action.index_30_exploited 16
learning_engine_featurewise.action.index_32_explored 21
learning_engine_featurewise.action.index_32_exploited 11794
learning_engine_featurewise.action.index_-1_explored 27
learning_engine_featurewise.action.index_-1_exploited 1
learning_engine_featurewise.action.index_-3_explored 21
learning_engine_featurewise.action.index_-3_exploited 0
learning_engine_featurewise.action.index_-6_explored 23
learning_engine_featurewise.action.index_-6_exploited 0
learning_engine_featurewise.action.index_0_explored 30
learning_engine_featurewise.action.index_0_exploited 0
learning_engine_featurewise.learn.called 209874
learning_engine_featurewise.learn.su_skip_PC 0
learning_engine_featurewise.learn.su_skip_PC_Delta 0

learning_engine_featurewise.q_value_histogram.bucket_0 0
learning_engine_featurewise.q_value_histogram.bucket_1 0
learning_engine_featurewise.q_value_histogram.bucket_2 0
learning_engine_featurewise.q_value_histogram.bucket_3 0
learning_engine_featurewise.q_value_histogram.bucket_4 1182
learning_engine_featurewise.q_value_histogram.bucket_5 1862
learning_engine_featurewise.q_value_histogram.bucket_6 208264
learning_engine_featurewise.q_value_histogram.bucket_7 0

learning_engine_featurewise.consensus.total 211308
learning_engine_featurewise.consensus.feature_align_PC 211269
learning_engine_featurewise.consensus.feature_align_PC_ratio 1.00
learning_engine_featurewise.consensus.feature_align_PC_Delta 193440
learning_engine_featurewise.consensus.feature_align_PC_Delta_ratio 0.92
learning_engine_featurewise.consensus.feature_align_all 193401
learning_engine_featurewise.consensus.feature_align_all_ratio 0.92

learning_engine_featurewise.feature_PC_min_weight 1000000.00000000
learning_engine_featurewise.feature_PC_max_weight 0.00000000
learning_engine_featurewise.feature_PC_Delta_min_weight 1000000.00000000
learning_engine_featurewise.feature_PC_Delta_max_weight 0.00000000
unique_pcs 65
unique_pages 29134
unique_trigger_pcs 32
total_bitmaps_seen 0
unique_bitmaps_seen 0

scooby_bw_epochs 74690
scooby_bw_level_0 24195
scooby_bw_level_1 39261
scooby_bw_level_2 8657
scooby_bw_level_3 2577

scooby_ipc_epochs 0
scooby_ipc_level_0 0
scooby_ipc_level_1 0
scooby_ipc_level_2 0
scooby_ipc_level_3 0

scooby_cache_acc_epochs 15389
scooby_cache_acc_level_0 1
scooby_cache_acc_level_1 1
scooby_cache_acc_level_2 5
scooby_cache_acc_level_3 170
scooby_cache_acc_level_4 1939
scooby_cache_acc_level_5 5599
scooby_cache_acc_level_6 4588
scooby_cache_acc_level_7 1925
scooby_cache_acc_level_8 712
scooby_cache_acc_level_9 449

Channel_0_RQ_row_buffer_hit 90493
Channel_0_RQ_row_buffer_miss 161062
Channel_0_WQ_row_buffer_hit 22370
Channel_0_WQ_row_buffer_miss 68165
Channel_0_WQ_full 0
Channel_0_dbus_congested 162916

avg_congested_cycle 10

DRAM_bw_pochs 74690
DRAM_bw_level_0 24195
DRAM_bw_level_1 39261
DRAM_bw_level_2 8657
DRAM_bw_level_3 2577
