Original cmd-> /cluster/home/vlnitu/CA-Lab4-24-vlnitu/Pythia/bin/perceptron-no-multi-no-ship-1core --warmup_instructions=1000000 --simulation_instructions=10000000 --l2c_prefetcher_types=scooby --config=/cluster/home/vlnitu/CA-Lab4-24-vlnitu/Pythia/config/pythia.ini --mail-type=BEGIN,END  -traces /cluster/home/vlnitu/CA-Lab4-24-vlnitu/Pythia/traces/654.roms_s-1390B.champsimtrace.xz
*************************************************
   ChampSim Multicore Out-of-Order Simulator
   Last compiled: Nov 19 2024 20:10:11
*************************************************
parsing config file: /cluster/home/vlnitu/CA-Lab4-24-vlnitu/Pythia/config/pythia.ini
unable to parse section: , name: mail-type, value: BEGIN,END

trace_0 /cluster/home/vlnitu/CA-Lab4-24-vlnitu/Pythia/traces/654.roms_s-1390B.champsimtrace.xz
adding L2C_PREFETCHER: Scooby
Initialize SHIP state
warmup_instructions 1000000
simulation_instructions 10000000
champsim_seed 271
measure_ipc 0
measure_ipc_epoch 1000
measure_dram_bw 1
measure_dram_bw_epoch 256
measure_cache_acc 1
measure_cache_acc_epoch 1024
l1d_perfect 0
l2c_perfect 0
llc_perfect 0
l1d_semi_perfect 0
l2c_semi_perfect 0
llc_semi_perfect 0
semi_perfect_cache_page_buffer_size 64

num_cpus 1
cpu_freq 4000
dram_io_freq 2400
page_size 4096
block_size 64
max_read_per_cycle 8
max_fill_per_cycle 1
dram_channels 1
log2_dram_channels 0
dram_ranks 1
dram_banks 8
dram_rows 65536
dram_columns 128
dram_row_size 8
dram_size 4096
dram_pages 1048576

fetch_width 6
decode_width 6
exec_width 4
lq_width 2
sq_width 2
retire_width 4
scheduler_size 128
branch_mispredict_penalty 20
rob_size 256
lq_size 72
sq_size 56
num_instr_destinations_sparc 4
num_instr_destinations 2
num_instr_sources 4

itlb_set 16
itlb_way 8
itlb_rq_size 16
itlb_wq_size 16
itlb_pq_size 0
itlb_mshr_size 8
itlb_latency 1

dtlb_set 16
dtlb_way 4
dtlb_rq_size 16
dtlb_wq_size 16
dtlb_pq_size 0
dtlb_mshr_size 8
dtlb_latency 1

stlb_set 128
stlb_way 12
stlb_rq_size 32
stlb_wq_size 32
stlb_pq_size 0
stlb_mshr_size 16
stlb_latency 8

l1i_size 32
l1i_set 64
l1i_way 8
l1i_rq_size 64
l1i_wq_size 64
l1i_pq_size 8
l1i_mshr_size 8
l1i_latency 1

l1d_size 32
l1d_set 64
l1d_way 8
l1d_rq_size 64
l1d_wq_size 64
l1d_pq_size 8
l1d_mshr_size 16
l1d_latency 4

l2c_size 256
l2c_set 512
l2c_way 8
l2c_rq_size 32
l2c_wq_size 32
l2c_pq_size 32
l2c_mshr_size 32
l2c_latency 10

llc_size 2048
llc_set 2048
llc_way 16
llc_rq_size 32
llc_wq_size 32
llc_pq_size 32
llc_mshr_size 64
llc_latency 20

dram_channel_width 8
dram_wq_size 64
dram_rq_size 64
tRP 15
tRCD 15
tCAS 12.5
dram_dbus_turn_around_time 30
dram_write_high_wm 56
dram_write_low_wm 48
min_dram_writes_per_switch 16
dram_mtps 2400
dram_dbus_return_time 13

scooby_alpha 0.0065088
scooby_gamma 0.556301
scooby_epsilon 0.00182284
scooby_state_num_bits 10
scooby_max_states 1024
scooby_seed 200
scooby_policy EGreedy
scooby_learning_type SARSA
scooby_actions 1,3,4,5,10,11,12,22,23,30,32,-1,-3,-6,0,
scooby_max_actions 15
scooby_pt_size 256
scooby_st_size 64
scooby_max_pcs 5
scooby_max_offsets 5
scooby_max_deltas 5
scooby_reward_none -4
scooby_reward_incorrect -8
scooby_reward_correct_untimely 12
scooby_reward_correct_timely 20
scooby_brain_zero_init 0
scooby_enable_reward_all 0
scooby_enable_track_multiple 0
scooby_enable_reward_out_of_bounds 1
scooby_reward_out_of_bounds -12
scooby_state_type 1
scooby_state_hash_type 11
scooby_access_debug 0
scooby_print_access_debug 0
scooby_print_access_debug_pc deadbeef
scooby_print_access_debug_pc_count 0
scooby_print_trace 0
scooby_enable_state_action_stats 1
scooby_enable_reward_tracker_hit 0
scooby_reward_tracker_hit -2
scooby_enable_featurewise_engine 1
scooby_pref_degree 1
scooby_enable_dyn_degree 1
scooby_max_to_avg_q_thresholds 0.5,1,2,
scooby_dyn_degrees 1,2,4,4,
scooby_multi_deg_select_type 2
scooby_last_pref_offset_conf_thresholds 1,3,8,
scooby_dyn_degrees_type2 1,2,4,6,
scooby_action_tracker_size 2
scooby_high_bw_thresh 4
scooby_enable_hbw_reward 1
scooby_reward_hbw_correct_timely 20
scooby_reward_hbw_correct_untimely 12
scooby_reward_hbw_incorrect -14
scooby_reward_hbw_none -2
scooby_reward_hbw_out_of_bounds -12
scooby_reward_hbw_tracker_hit -2
scooby_last_pref_offset_conf_thresholds_hbw 1,3,8,
scooby_dyn_degrees_type2_hbw 1,2,4,6,

le_enable_trace 0
le_trace_interval 0
le_trace_file_name 
le_trace_state 0
le_enable_score_plot 0
le_plot_file_name 
le_plot_actions 
le_enable_action_trace 0
le_action_trace_interval 0
le_action_trace_name 
le_enable_action_plot 0

le_featurewise_active_features PC, PC_Delta
le_featurewise_num_tilings 3,3,
le_featurewise_num_tiles 128,128,
le_featurewise_hash_types 2,2,
le_featurewise_enable_tiling_offset 1,1,
le_featurewise_max_q_thresh 0.5
le_featurewise_enable_action_fallback 1
le_featurewise_feature_weights 1,1,
le_featurewise_enable_dynamic_weight 0
le_featurewise_weight_gradient 0.001
le_featurewise_disable_adjust_weight_all_features_align 1
le_featurewise_selective_update 0
le_featurewise_pooling_type 2
le_featurewise_enable_dyn_action_fallback 1
le_featurewise_bw_acc_check_level 1
le_featurewise_acc_thresh 2
le_featurewise_enable_trace 0
le_featurewise_trace_feature_type 0
le_featurewise_trace_feature 
le_featurewise_trace_interval 0
le_featurewise_trace_record_count 0
le_featurewise_trace_file_name 
le_featurewise_enable_score_plot 0
le_featurewise_plot_actions 
le_featurewise_plot_file_name 


Heartbeat CPU  0 instructions:    1000003 cycles:     651272 heartbeat IPC: 1.53546 cumulative IPC: 1.53546 (Simulation time: 0 hr 0 min 1 sec) 

Warmup complete CPU  0 instructions:    1000003 cycles:     651272 (Simulation time: 0 hr 0 min 1 sec) 

Heartbeat CPU  0 instructions:    2000003 cycles:    1642720 heartbeat IPC: 1.00863 cumulative IPC: 1.00863 (Simulation time: 0 hr 0 min 3 sec) 
Heartbeat CPU  0 instructions:    3000000 cycles:    2633867 heartbeat IPC: 1.00893 cumulative IPC: 1.00878 (Simulation time: 0 hr 0 min 5 sec) 
Heartbeat CPU  0 instructions:    4000000 cycles:    3627425 heartbeat IPC: 1.00648 cumulative IPC: 1.00801 (Simulation time: 0 hr 0 min 7 sec) 
Heartbeat CPU  0 instructions:    5000001 cycles:    4624609 heartbeat IPC: 1.00282 cumulative IPC: 1.00671 (Simulation time: 0 hr 0 min 10 sec) 
Heartbeat CPU  0 instructions:    6000001 cycles:    5766302 heartbeat IPC: 0.87589 cumulative IPC: 0.97751 (Simulation time: 0 hr 0 min 12 sec) 
Heartbeat CPU  0 instructions:    7000003 cycles:    7019828 heartbeat IPC: 0.79775 cumulative IPC: 0.94213 (Simulation time: 0 hr 0 min 14 sec) 
Heartbeat CPU  0 instructions:    8000000 cycles:    8092828 heartbeat IPC: 0.93196 cumulative IPC: 0.94066 (Simulation time: 0 hr 0 min 17 sec) 
Heartbeat CPU  0 instructions:    9000000 cycles:    9212372 heartbeat IPC: 0.89322 cumulative IPC: 0.93446 (Simulation time: 0 hr 0 min 19 sec) 
Heartbeat CPU  0 instructions:   10000003 cycles:   10335115 heartbeat IPC: 0.89068 cumulative IPC: 0.92938 (Simulation time: 0 hr 0 min 21 sec) 
Heartbeat CPU  0 instructions:   11000001 cycles:   11453247 heartbeat IPC: 0.89435 cumulative IPC: 0.92576 (Simulation time: 0 hr 0 min 24 sec) 
Finished CPU 0 instructions: 10000000 cycles: 10801976 cumulative IPC: 0.92576 (Simulation time: 0 hr 0 min 24 sec) 

ChampSim completed all CPUs

[ROI Statistics]
Core_0_instructions 10000000
Core_0_cycles 10801976
Core_0_IPC 0.92576

Core_0_branch_prediction_accuracy 99.80465
Core_0_branch_MPKI 0.06380
Core_0_average_ROB_occupancy_at_mispredict 252.92790

Core_0_L1D_total_access 3640571
Core_0_L1D_total_hit 3253257
Core_0_L1D_total_miss 387314
Core_0_L1D_loads 3530129
Core_0_L1D_load_hit 3184114
Core_0_L1D_load_miss 346015
Core_0_L1D_RFOs 110442
Core_0_L1D_RFO_hit 69143
Core_0_L1D_RFO_miss 41299
Core_0_L1D_prefetches 0
Core_0_L1D_prefetch_hit 0
Core_0_L1D_prefetch_miss 0
Core_0_L1D_writebacks 0
Core_0_L1D_writeback_hit 0
Core_0_L1D_writeback_miss 0
Core_0_L1D_prefetch_requested 0
Core_0_L1D_prefetch_dropped 0
Core_0_L1D_prefetch_issued 0
Core_0_L1D_prefetch_filled 0
Core_0_L1D_prefetch_useful 0
Core_0_L1D_prefetch_useless 0
Core_0_L1D_prefetch_late 0
Core_0_L1D_average_miss_latency 45.57343

Core_0_L1D_rq_access 5674599
Core_0_L1D_rq_forward 0
Core_0_L1D_rq_merged 2024527
Core_0_L1D_rq_to_cache 3650072
Core_0_L1D_rq_full 0

Core_0_L1D_wq_access 328513
Core_0_L1D_wq_forward 0
Core_0_L1D_wq_merged 0
Core_0_L1D_wq_to_cache 328513
Core_0_L1D_wq_full 0

Core_0_L1D_pq_access 0
Core_0_L1D_pq_forward 0
Core_0_L1D_pq_merged 0
Core_0_L1D_pq_to_cache 0
Core_0_L1D_pq_full 0

Core_0_L1D_acc_epochs 10506
Core_0_L1D_acc_level_0 10506
Core_0_L1D_acc_level_1 0
Core_0_L1D_acc_level_2 0
Core_0_L1D_acc_level_3 0
Core_0_L1D_acc_level_4 0
Core_0_L1D_acc_level_5 0
Core_0_L1D_acc_level_6 0
Core_0_L1D_acc_level_7 0
Core_0_L1D_acc_level_8 0
Core_0_L1D_acc_level_9 0

Core_0_L1I_total_access 2621808
Core_0_L1I_total_hit 2621792
Core_0_L1I_total_miss 16
Core_0_L1I_loads 2621808
Core_0_L1I_load_hit 2621792
Core_0_L1I_load_miss 16
Core_0_L1I_RFOs 0
Core_0_L1I_RFO_hit 0
Core_0_L1I_RFO_miss 0
Core_0_L1I_prefetches 0
Core_0_L1I_prefetch_hit 0
Core_0_L1I_prefetch_miss 0
Core_0_L1I_writebacks 0
Core_0_L1I_writeback_hit 0
Core_0_L1I_writeback_miss 0
Core_0_L1I_prefetch_requested 0
Core_0_L1I_prefetch_dropped 0
Core_0_L1I_prefetch_issued 0
Core_0_L1I_prefetch_filled 0
Core_0_L1I_prefetch_useful 0
Core_0_L1I_prefetch_useless 0
Core_0_L1I_prefetch_late 0
Core_0_L1I_average_miss_latency 210.93750

Core_0_L1I_rq_access 9999995
Core_0_L1I_rq_forward 0
Core_0_L1I_rq_merged 7378135
Core_0_L1I_rq_to_cache 2621860
Core_0_L1I_rq_full 0

Core_0_L1I_wq_access 0
Core_0_L1I_wq_forward 0
Core_0_L1I_wq_merged 0
Core_0_L1I_wq_to_cache 0
Core_0_L1I_wq_full 0

Core_0_L1I_pq_access 0
Core_0_L1I_pq_forward 0
Core_0_L1I_pq_merged 0
Core_0_L1I_pq_to_cache 0
Core_0_L1I_pq_full 0

Core_0_L1I_acc_epochs 10506
Core_0_L1I_acc_level_0 10506
Core_0_L1I_acc_level_1 0
Core_0_L1I_acc_level_2 0
Core_0_L1I_acc_level_3 0
Core_0_L1I_acc_level_4 0
Core_0_L1I_acc_level_5 0
Core_0_L1I_acc_level_6 0
Core_0_L1I_acc_level_7 0
Core_0_L1I_acc_level_8 0
Core_0_L1I_acc_level_9 0

Core_0_L2C_total_access 2051010
Core_0_L2C_total_hit 1752050
Core_0_L2C_total_miss 298960
Core_0_L2C_loads 346030
Core_0_L2C_load_hit 329284
Core_0_L2C_load_miss 16746
Core_0_L2C_RFOs 41299
Core_0_L2C_RFO_hit 0
Core_0_L2C_RFO_miss 41299
Core_0_L2C_prefetches 1621970
Core_0_L2C_prefetch_hit 1381069
Core_0_L2C_prefetch_miss 240901
Core_0_L2C_writebacks 41711
Core_0_L2C_writeback_hit 41697
Core_0_L2C_writeback_miss 14
Core_0_L2C_prefetch_requested 1886132
Core_0_L2C_prefetch_dropped 83
Core_0_L2C_prefetch_issued 1886049
Core_0_L2C_prefetch_filled 264390
Core_0_L2C_prefetch_useful 253300
Core_0_L2C_prefetch_useless 10932
Core_0_L2C_prefetch_late 10304
Core_0_L2C_average_miss_latency 251.33467

Core_0_L2C_rq_access 387332
Core_0_L2C_rq_forward 0
Core_0_L2C_rq_merged 0
Core_0_L2C_rq_to_cache 387331
Core_0_L2C_rq_full 0

Core_0_L2C_wq_access 41711
Core_0_L2C_wq_forward 1
Core_0_L2C_wq_merged 0
Core_0_L2C_wq_to_cache 41711
Core_0_L2C_wq_full 0

Core_0_L2C_pq_access 1886049
Core_0_L2C_pq_forward 0
Core_0_L2C_pq_merged 2177
Core_0_L2C_pq_to_cache 1883872
Core_0_L2C_pq_full 0

Core_0_L2C_acc_epochs 10506
Core_0_L2C_acc_level_0 1
Core_0_L2C_acc_level_1 0
Core_0_L2C_acc_level_2 1
Core_0_L2C_acc_level_3 0
Core_0_L2C_acc_level_4 6
Core_0_L2C_acc_level_5 20
Core_0_L2C_acc_level_6 35
Core_0_L2C_acc_level_7 311
Core_0_L2C_acc_level_8 1915
Core_0_L2C_acc_level_9 8217

Core_0_LLC_total_access 340320
Core_0_LLC_total_hit 8223
Core_0_LLC_total_miss 332097
Core_0_LLC_loads 6443
Core_0_LLC_load_hit 21
Core_0_LLC_load_miss 6422
Core_0_LLC_RFOs 41299
Core_0_LLC_RFO_hit 0
Core_0_LLC_RFO_miss 41299
Core_0_LLC_prefetches 251204
Core_0_LLC_prefetch_hit 137
Core_0_LLC_prefetch_miss 251067
Core_0_LLC_writebacks 41374
Core_0_LLC_writeback_hit 8065
Core_0_LLC_writeback_miss 33309
Core_0_LLC_prefetch_requested 0
Core_0_LLC_prefetch_dropped 0
Core_0_LLC_prefetch_issued 0
Core_0_LLC_prefetch_filled 274551
Core_0_LLC_prefetch_useful 0
Core_0_LLC_prefetch_useless 262340
Core_0_LLC_prefetch_late 0
Core_0_LLC_average_miss_latency 204.69223

Core_0_LLC_rq_access 47743
Core_0_LLC_rq_forward 0
Core_0_LLC_rq_merged 0
Core_0_LLC_rq_to_cache 47743
Core_0_LLC_rq_full 0

Core_0_LLC_wq_access 41374
Core_0_LLC_wq_forward 0
Core_0_LLC_wq_merged 0
Core_0_LLC_wq_to_cache 41374
Core_0_LLC_wq_full 0

Core_0_LLC_pq_access 274701
Core_0_LLC_pq_forward 0
Core_0_LLC_pq_merged 0
Core_0_LLC_pq_to_cache 274701
Core_0_LLC_pq_full 0

Core_0_LLC_acc_epochs 11185
Core_0_LLC_acc_level_0 11185
Core_0_LLC_acc_level_1 0
Core_0_LLC_acc_level_2 0
Core_0_LLC_acc_level_3 0
Core_0_LLC_acc_level_4 0
Core_0_LLC_acc_level_5 0
Core_0_LLC_acc_level_6 0
Core_0_LLC_acc_level_7 0
Core_0_LLC_acc_level_8 0
Core_0_LLC_acc_level_9 0

Core_0_major_page_fault 0
Core_0_minor_page_fault 6576

scooby_st_lookup 369034
scooby_st_hit 362692
scooby_st_evict 6278
scooby_st_insert 6342
scooby_st_streaming 0

scooby_predict_called 369034
scooby_predict_out_of_bounds 5853
scooby_predict_action_1 362016
scooby_predict_issue_action_1 361719
scooby_predict_hit_action_1 297
scooby_predict_out_of_bounds_action_1 5732
scooby_predict_action_3 80
scooby_predict_issue_action_3 80
scooby_predict_hit_action_3 0
scooby_predict_out_of_bounds_action_3 1
scooby_predict_action_4 44
scooby_predict_issue_action_4 44
scooby_predict_hit_action_4 0
scooby_predict_out_of_bounds_action_4 1
scooby_predict_action_5 58
scooby_predict_issue_action_5 58
scooby_predict_hit_action_5 0
scooby_predict_out_of_bounds_action_5 5
scooby_predict_action_10 57
scooby_predict_issue_action_10 57
scooby_predict_hit_action_10 0
scooby_predict_out_of_bounds_action_10 11
scooby_predict_action_11 424
scooby_predict_issue_action_11 424
scooby_predict_hit_action_11 0
scooby_predict_out_of_bounds_action_11 13
scooby_predict_action_12 51
scooby_predict_issue_action_12 51
scooby_predict_hit_action_12 0
scooby_predict_out_of_bounds_action_12 9
scooby_predict_action_22 53
scooby_predict_issue_action_22 53
scooby_predict_hit_action_22 0
scooby_predict_out_of_bounds_action_22 15
scooby_predict_action_23 39
scooby_predict_issue_action_23 39
scooby_predict_hit_action_23 0
scooby_predict_out_of_bounds_action_23 16
scooby_predict_action_30 39
scooby_predict_issue_action_30 39
scooby_predict_hit_action_30 0
scooby_predict_out_of_bounds_action_30 25
scooby_predict_action_32 34
scooby_predict_issue_action_32 34
scooby_predict_hit_action_32 0
scooby_predict_out_of_bounds_action_32 18
scooby_predict_action_-1 67
scooby_predict_issue_action_-1 20
scooby_predict_hit_action_-1 47
scooby_predict_out_of_bounds_action_-1 1
scooby_predict_action_-3 46
scooby_predict_issue_action_-3 9
scooby_predict_hit_action_-3 37
scooby_predict_out_of_bounds_action_-3 2
scooby_predict_action_-6 58
scooby_predict_issue_action_-6 29
scooby_predict_hit_action_-6 29
scooby_predict_out_of_bounds_action_-6 4
scooby_predict_action_0 115
scooby_predict_issue_action_0 0
scooby_predict_hit_action_0 0
scooby_predict_out_of_bounds_action_0 0
scooby_predict_multi_deg_called 342870
scooby_predict_predicted 1886132
scooby_predict_multi_deg 1523476
scooby_predict_multi_deg_2 337247
scooby_predict_multi_deg_3 319543
scooby_predict_multi_deg_4 313987
scooby_predict_multi_deg_5 279025
scooby_predict_multi_deg_6 273674
scooby_predict_multi_deg_7 0
scooby_predict_multi_deg_8 0
scooby_predict_multi_deg_9 0
scooby_predict_multi_deg_10 0
scooby_predict_multi_deg_11 0
scooby_predict_multi_deg_12 0
scooby_predict_multi_deg_13 0
scooby_predict_multi_deg_14 0
scooby_predict_multi_deg_15 0
scooby_predict_multi_deg_16 0

scooby_selected_deg_1 19786
scooby_selected_deg_2 12246
scooby_selected_deg_3 0
scooby_selected_deg_4 30259
scooby_selected_deg_5 0
scooby_selected_deg_6 300365
scooby_selected_deg_7 0
scooby_selected_deg_8 0
scooby_selected_deg_9 0
scooby_selected_deg_10 0
scooby_selected_deg_11 0
scooby_selected_deg_12 0
scooby_selected_deg_13 0
scooby_selected_deg_14 0
scooby_selected_deg_15 0
scooby_selected_deg_16 0

scooby_state_455113|61|1 381,0,0,0,0,0,0,0,0,0,0,0,0,0,0,381,
scooby_state_4550fa|24|1 380,0,0,0,0,0,0,0,1,0,0,0,0,0,0,381,
scooby_state_4550e2|13|1 381,0,0,0,0,0,0,0,0,0,0,0,0,0,0,381,
scooby_state_4550f4|24|1 380,0,0,0,0,0,0,0,0,1,0,0,0,0,0,381,
scooby_state_4550e2|16|1 380,0,0,1,0,0,0,0,0,0,0,0,0,0,0,381,
scooby_state_4550e2|12|1 380,0,0,0,1,0,0,0,0,0,0,0,0,0,0,381,
scooby_state_4550dc|13|1 381,0,0,0,0,0,0,0,0,0,0,0,0,0,0,381,
scooby_state_4550fa|21|1 381,0,0,0,0,0,0,0,0,0,0,0,0,0,0,381,
scooby_state_4550f4|26|1 380,1,0,0,0,0,0,0,0,0,0,0,0,0,0,381,
scooby_state_4550dc|14|1 381,0,0,0,0,0,0,0,0,0,0,0,0,0,0,381,
scooby_state_4550e2|17|1 380,0,0,0,0,0,0,0,0,0,0,0,1,0,0,381,
scooby_state_4550bc|0|0 381,0,0,0,0,0,0,0,0,0,0,0,0,0,0,381,
scooby_state_4550dc|15|1 381,0,0,0,0,0,0,0,0,0,0,0,0,0,0,381,
scooby_state_455113|63|1 379,0,0,0,0,0,1,0,0,0,0,0,0,1,0,381,
scooby_state_4550a8|0|0 381,0,0,0,0,0,0,0,0,0,0,0,0,0,0,381,
scooby_state_4550f4|23|1 381,0,0,0,0,0,0,0,0,0,0,0,0,0,0,381,
scooby_state_4550e2|14|1 380,0,0,0,1,0,0,0,0,0,0,0,0,0,0,381,
scooby_state_455101|0|0 379,0,0,0,0,0,0,0,1,0,0,0,1,0,0,381,
scooby_state_4550f4|21|1 380,1,0,0,0,0,0,0,0,0,0,0,0,0,0,381,
scooby_state_4550e2|15|1 381,0,0,0,0,0,0,0,0,0,0,0,0,0,0,381,
scooby_state_4550fa|23|1 380,0,1,0,0,0,0,0,0,0,0,0,0,0,0,381,
scooby_state_455113|59|1 381,0,0,0,0,0,0,0,0,0,0,0,0,0,0,381,
scooby_state_4550fa|22|1 379,0,0,0,0,1,0,0,0,0,1,0,0,0,0,381,
scooby_state_4550f4|20|1 380,0,0,0,0,0,0,0,0,0,0,0,1,0,0,381,
scooby_state_4550dc|12|1 376,1,0,0,1,0,0,1,0,1,0,0,0,1,0,381,
scooby_state_4550dc|17|1 380,0,0,0,0,0,0,0,0,1,0,0,0,0,0,381,
scooby_state_4550fa|25|1 380,0,1,0,0,0,0,0,0,0,0,0,0,0,0,381,
scooby_state_455113|58|1 380,0,1,0,0,0,0,0,0,0,0,0,0,0,0,381,
scooby_state_4550fa|19|1 379,0,0,0,0,0,0,0,1,1,0,0,0,0,0,381,
scooby_state_4550dc|18|1 381,0,0,0,0,0,0,0,0,0,0,0,0,0,0,381,
scooby_state_4550dc|16|1 381,0,0,0,0,0,0,0,0,0,0,0,0,0,0,381,
scooby_state_4550f4|25|1 381,0,0,0,0,0,0,0,0,0,0,0,0,0,0,381,
scooby_state_455113|62|1 381,0,0,0,0,0,0,0,0,0,0,0,0,0,0,381,
scooby_state_4550f4|22|1 380,0,0,0,0,0,0,0,0,0,0,0,1,0,0,381,
scooby_state_4550fa|20|1 380,0,0,0,0,0,1,0,0,0,0,0,0,0,0,381,
scooby_state_455113|60|1 381,0,0,0,0,0,0,0,0,0,0,0,0,0,0,381,
scooby_state_4550dc|59|1 379,0,0,0,0,1,0,0,0,0,0,0,0,0,0,380,
scooby_state_4550fa|59|1 380,0,0,0,0,0,0,0,0,0,0,0,0,0,0,380,
scooby_state_4550dc|37|1 378,0,0,0,0,0,0,0,0,1,0,0,0,0,1,380,
scooby_state_4550e2|24|1 379,0,0,1,0,0,0,0,0,0,0,0,0,0,0,380,
scooby_state_4550fa|26|1 380,0,0,0,0,0,0,0,0,0,0,0,0,0,0,380,
scooby_state_4550f4|60|1 379,0,0,1,0,0,0,0,0,0,0,0,0,0,0,380,
scooby_state_4550fa|10|1 380,0,0,0,0,0,0,0,0,0,0,0,0,0,0,380,
scooby_state_455113|5|1 379,0,0,0,0,0,0,0,0,0,0,0,1,0,0,380,
scooby_state_4550fa|30|1 379,0,0,0,0,0,0,0,0,0,0,1,0,0,0,380,
scooby_state_4550e2|26|1 378,0,0,0,0,0,0,0,0,0,0,1,1,0,0,380,
scooby_state_455113|15|1 380,0,0,0,0,0,0,0,0,0,0,0,0,0,0,380,
scooby_state_4550e2|21|1 380,0,0,0,0,0,0,0,0,0,0,0,0,0,0,380,
scooby_state_4550f4|27|1 380,0,0,0,0,0,0,0,0,0,0,0,0,0,0,380,
scooby_state_4550fa|18|1 380,0,0,0,0,0,0,0,0,0,0,0,0,0,0,380,
scooby_state_455113|4|1 380,0,0,0,0,0,0,0,0,0,0,0,0,0,0,380,
scooby_state_4550f4|3|1 380,0,0,0,0,0,0,0,0,0,0,0,0,0,0,380,
scooby_state_4550dc|3|1 380,0,0,0,0,0,0,0,0,0,0,0,0,0,0,380,
scooby_state_4550dc|23|1 380,0,0,0,0,0,0,0,0,0,0,0,0,0,0,380,
scooby_state_455113|6|1 380,0,0,0,0,0,0,0,0,0,0,0,0,0,0,380,
scooby_state_4550f4|58|1 379,0,0,0,1,0,0,0,0,0,0,0,0,0,0,380,
scooby_state_4550e2|25|1 379,1,0,0,0,0,0,0,0,0,0,0,0,0,0,380,
scooby_state_455113|20|1 380,0,0,0,0,0,0,0,0,0,0,0,0,0,0,380,
scooby_state_4550e2|22|1 379,0,0,0,0,0,0,0,0,1,0,0,0,0,0,380,
scooby_state_4550e2|9|1 379,1,0,0,0,0,0,0,0,0,0,0,0,0,0,380,
scooby_state_455113|8|1 379,0,0,0,0,0,0,0,0,0,0,0,1,0,0,380,
scooby_state_4550f4|56|1 380,0,0,0,0,0,0,0,0,0,0,0,0,0,0,380,
scooby_state_4550f4|32|1 380,0,0,0,0,0,0,0,0,0,0,0,0,0,0,380,
scooby_state_4550e2|28|1 380,0,0,0,0,0,0,0,0,0,0,0,0,0,0,380,
scooby_state_4550dc|30|1 380,0,0,0,0,0,0,0,0,0,0,0,0,0,0,380,
scooby_state_4550fa|54|1 380,0,0,0,0,0,0,0,0,0,0,0,0,0,0,380,
scooby_state_4550dc|29|1 380,0,0,0,0,0,0,0,0,0,0,0,0,0,0,380,
scooby_state_4550f4|37|1 380,0,0,0,0,0,0,0,0,0,0,0,0,0,0,380,
scooby_state_4550f4|41|1 378,0,0,0,0,0,0,0,0,1,0,0,0,0,1,380,
scooby_state_4550e2|1|1 378,0,0,0,0,1,0,1,0,0,0,0,0,0,0,380,
scooby_state_4550fa|3|1 379,0,0,0,0,0,0,0,0,1,0,0,0,0,0,380,
scooby_state_455113|7|1 380,0,0,0,0,0,0,0,0,0,0,0,0,0,0,380,
scooby_state_4550e2|29|1 380,0,0,0,0,0,0,0,0,0,0,0,0,0,0,380,
scooby_state_4550dc|48|1 380,0,0,0,0,0,0,0,0,0,0,0,0,0,0,380,
scooby_state_4550dc|24|1 380,0,0,0,0,0,0,0,0,0,0,0,0,0,0,380,
scooby_state_455113|14|1 380,0,0,0,0,0,0,0,0,0,0,0,0,0,0,380,
scooby_state_4550f4|38|1 380,0,0,0,0,0,0,0,0,0,0,0,0,0,0,380,
scooby_state_455113|12|1 379,0,0,0,0,0,1,0,0,0,0,0,0,0,0,380,
scooby_state_4550e2|58|1 380,0,0,0,0,0,0,0,0,0,0,0,0,0,0,380,
scooby_state_4550e2|30|1 380,0,0,0,0,0,0,0,0,0,0,0,0,0,0,380,
scooby_state_4550fa|38|1 379,0,0,0,0,1,0,0,0,0,0,0,0,0,0,380,
scooby_state_455113|19|1 380,0,0,0,0,0,0,0,0,0,0,0,0,0,0,380,
scooby_state_4550fa|39|1 380,0,0,0,0,0,0,0,0,0,0,0,0,0,0,380,
scooby_state_4550f4|39|1 379,0,0,0,0,0,0,0,0,0,0,0,0,0,1,380,
scooby_state_455113|0|0 380,0,0,0,0,0,0,0,0,0,0,0,0,0,0,380,
scooby_state_4550fa|34|1 379,0,0,0,0,0,0,0,0,0,0,1,0,0,0,380,
scooby_state_4550fa|32|1 380,0,0,0,0,0,0,0,0,0,0,0,0,0,0,380,
scooby_state_4550dc|55|1 380,0,0,0,0,0,0,0,0,0,0,0,0,0,0,380,
scooby_state_4550e2|53|1 380,0,0,0,0,0,0,0,0,0,0,0,0,0,0,380,
scooby_state_4550e2|59|1 380,0,0,0,0,0,0,0,0,0,0,0,0,0,0,380,
scooby_state_4550f4|34|1 380,0,0,0,0,0,0,0,0,0,0,0,0,0,0,380,
scooby_state_4550fa|37|1 380,0,0,0,0,0,0,0,0,0,0,0,0,0,0,380,
scooby_state_4550f4|28|1 379,0,0,0,0,0,0,0,0,0,1,0,0,0,0,380,
scooby_state_4550fa|56|1 379,0,0,0,0,0,1,0,0,0,0,0,0,0,0,380,
scooby_state_4550dc|27|1 380,0,0,0,0,0,0,0,0,0,0,0,0,0,0,380,
scooby_state_4550fa|47|1 380,0,0,0,0,0,0,0,0,0,0,0,0,0,0,380,
scooby_state_4550f4|33|1 379,0,0,0,0,0,0,0,0,0,0,0,0,1,0,380,
scooby_state_4550fa|36|1 379,0,0,0,0,0,0,1,0,0,0,0,0,0,0,380,
scooby_state_4550dc|20|1 378,0,0,0,0,0,0,0,0,1,0,0,1,0,0,380,
scooby_state_4550f4|63|1 377,0,0,0,0,1,0,0,0,1,0,0,1,0,0,380,
scooby_state_4550dc|25|1 380,0,0,0,0,0,0,0,0,0,0,0,0,0,0,380,
scooby_state_4550dc|28|1 380,0,0,0,0,0,0,0,0,0,0,0,0,0,0,380,
scooby_state_4550dc|35|1 379,0,0,1,0,0,0,0,0,0,0,0,0,0,0,380,
scooby_state_4550fa|35|1 379,0,0,0,0,0,0,0,0,0,1,0,0,0,0,380,
scooby_state_455113|10|1 380,0,0,0,0,0,0,0,0,0,0,0,0,0,0,380,
scooby_state_4550f4|45|1 380,0,0,0,0,0,0,0,0,0,0,0,0,0,0,380,
scooby_state_4550e2|4|1 379,0,0,0,0,0,0,0,0,1,0,0,0,0,0,380,
scooby_state_4550dc|62|1 380,0,0,0,0,0,0,0,0,0,0,0,0,0,0,380,
scooby_state_4550e2|61|1 380,0,0,0,0,0,0,0,0,0,0,0,0,0,0,380,
scooby_state_4550e2|2|1 378,0,0,0,0,0,0,1,0,0,0,0,0,0,1,380,
scooby_state_455113|49|1 379,0,0,1,0,0,0,0,0,0,0,0,0,0,0,380,
scooby_state_455113|43|1 379,0,0,0,0,0,0,0,1,0,0,0,0,0,0,380,
scooby_state_4550f4|5|1 378,0,0,0,0,0,0,0,0,2,0,0,0,0,0,380,
scooby_state_4550e2|3|1 380,0,0,0,0,0,0,0,0,0,0,0,0,0,0,380,
scooby_state_4550f4|12|1 380,0,0,0,0,0,0,0,0,0,0,0,0,0,0,380,
scooby_state_455113|50|1 380,0,0,0,0,0,0,0,0,0,0,0,0,0,0,380,
scooby_state_4550e2|60|1 379,0,0,0,0,0,0,0,0,1,0,0,0,0,0,380,
scooby_state_4550fa|13|1 380,0,0,0,0,0,0,0,0,0,0,0,0,0,0,380,
scooby_state_4550f4|13|1 380,0,0,0,0,0,0,0,0,0,0,0,0,0,0,380,
scooby_state_455113|51|1 380,0,0,0,0,0,0,0,0,0,0,0,0,0,0,380,
scooby_state_4550dc|6|1 380,0,0,0,0,0,0,0,0,0,0,0,0,0,0,380,
scooby_state_4550f4|14|1 377,0,1,0,0,0,0,1,0,0,0,0,0,1,0,380,
scooby_state_4550fa|0|-63 379,0,0,0,1,0,0,0,0,0,0,0,0,0,0,380,
scooby_state_455113|52|1 380,0,0,0,0,0,0,0,0,0,0,0,0,0,0,380,
scooby_state_4550e2|6|1 380,0,0,0,0,0,0,0,0,0,0,0,0,0,0,380,
scooby_state_4550dc|7|1 380,0,0,0,0,0,0,0,0,0,0,0,0,0,0,380,
scooby_state_4550fa|14|1 380,0,0,0,0,0,0,0,0,0,0,0,0,0,0,380,
scooby_state_4550e2|62|1 379,0,0,0,0,0,0,0,0,1,0,0,0,0,0,380,
scooby_state_4550dc|0|0 380,0,0,0,0,0,0,0,0,0,0,0,0,0,0,380,
scooby_state_4550f4|8|1 379,1,0,0,0,0,0,0,0,0,0,0,0,0,0,380,
scooby_state_4550dc|1|1 380,0,0,0,0,0,0,0,0,0,0,0,0,0,0,380,
scooby_state_455113|45|1 380,0,0,0,0,0,0,0,0,0,0,0,0,0,0,380,
scooby_state_4550f4|7|1 380,0,0,0,0,0,0,0,0,0,0,0,0,0,0,380,
scooby_state_455113|46|1 380,0,0,0,0,0,0,0,0,0,0,0,0,0,0,380,
scooby_state_4550fa|6|1 380,0,0,0,0,0,0,0,0,0,0,0,0,0,0,380,
scooby_state_4550fa|8|1 377,1,0,1,0,0,1,0,0,0,0,0,0,0,0,380,
scooby_state_4550e2|0|-63 379,0,0,0,0,0,0,0,0,0,0,1,0,0,0,380,
scooby_state_4550f4|15|1 380,0,0,0,0,0,0,0,0,0,0,0,0,0,0,380,
scooby_state_4550f4|9|1 380,0,0,0,0,0,0,0,0,0,0,0,0,0,0,380,
scooby_state_455113|47|1 379,0,0,0,0,0,1,0,0,0,0,0,0,0,0,380,
scooby_state_455113|44|1 379,0,0,0,0,0,0,0,0,0,0,0,0,0,1,380,
scooby_state_4550dc|2|1 378,1,0,0,0,0,0,0,0,0,0,1,0,0,0,380,
scooby_state_4550fa|9|1 380,0,0,0,0,0,0,0,0,0,0,0,0,0,0,380,
scooby_state_4550f4|10|1 380,0,0,0,0,0,0,0,0,0,0,0,0,0,0,380,
scooby_state_4550f4|6|1 378,1,0,0,0,0,1,0,0,0,0,0,0,0,0,380,
scooby_state_455113|48|1 378,0,0,0,0,0,1,0,0,0,0,0,0,1,0,380,
scooby_state_4550fa|5|1 379,0,0,0,0,0,1,0,0,0,0,0,0,0,0,380,
scooby_state_4550fa|31|1 380,0,0,0,0,0,0,0,0,0,0,0,0,0,0,380,
scooby_state_455113|18|1 379,0,0,0,0,0,0,0,0,0,1,0,0,0,0,380,
scooby_state_4550f4|16|1 379,0,0,0,0,0,1,0,0,0,0,0,0,0,0,380,
scooby_state_4550e2|10|1 379,1,0,0,0,0,0,0,0,0,0,0,0,0,0,380,
scooby_state_4550e2|19|1 380,0,0,0,0,0,0,0,0,0,0,0,0,0,0,380,
scooby_state_4550f4|19|1 380,0,0,0,0,0,0,0,0,0,0,0,0,0,0,380,
scooby_state_455113|21|1 380,0,0,0,0,0,0,0,0,0,0,0,0,0,0,380,
scooby_state_455113|57|1 379,0,1,0,0,0,0,0,0,0,0,0,0,0,0,380,
scooby_state_4550e2|46|1 379,0,0,0,0,0,0,0,0,1,0,0,0,0,0,380,
scooby_state_4550dc|39|1 380,0,0,0,0,0,0,0,0,0,0,0,0,0,0,380,
scooby_state_455113|1|1 379,0,0,0,0,0,0,0,0,1,0,0,0,0,0,380,
scooby_state_4550fa|27|1 380,0,0,0,0,0,0,0,0,0,0,0,0,0,0,380,
scooby_state_4550fa|52|1 379,0,0,0,0,0,0,0,1,0,0,0,0,0,0,380,
scooby_state_4550e2|23|1 379,0,0,0,0,0,0,0,0,0,0,0,1,0,0,380,
scooby_state_4550f4|1|1 379,0,0,0,0,0,0,1,0,0,0,0,0,0,0,380,
scooby_state_4550dc|21|1 380,0,0,0,0,0,0,0,0,0,0,0,0,0,0,380,
scooby_state_4550fa|28|1 380,0,0,0,0,0,0,0,0,0,0,0,0,0,0,380,
scooby_state_455113|30|1 379,0,0,0,0,0,0,0,0,0,0,1,0,0,0,380,
scooby_state_4550dc|47|1 378,0,0,0,1,0,1,0,0,0,0,0,0,0,0,380,
scooby_state_4550f4|29|1 378,0,0,1,0,0,0,0,0,1,0,0,0,0,0,380,
scooby_state_455113|2|1 380,0,0,0,0,0,0,0,0,0,0,0,0,0,0,380,
scooby_state_4550dc|60|1 379,0,1,0,0,0,0,0,0,0,0,0,0,0,0,380,
scooby_state_4550f4|42|1 379,0,0,0,0,1,0,0,0,0,0,0,0,0,0,380,
scooby_state_455113|53|1 380,0,0,0,0,0,0,0,0,0,0,0,0,0,0,380,
scooby_state_4550dc|8|1 376,1,0,1,0,0,0,0,1,0,0,0,0,0,1,380,
scooby_state_4550fa|15|1 380,0,0,0,0,0,0,0,0,0,0,0,0,0,0,380,
scooby_state_455113|54|1 378,0,1,0,0,0,0,0,0,0,1,0,0,0,0,380,
scooby_state_4550e2|11|1 379,0,0,0,0,0,0,1,0,0,0,0,0,0,0,380,
scooby_state_4550e2|27|1 380,0,0,0,0,0,0,0,0,0,0,0,0,0,0,380,
scooby_state_4550e2|8|1 380,0,0,0,0,0,0,0,0,0,0,0,0,0,0,380,
scooby_state_455113|3|1 380,0,0,0,0,0,0,0,0,0,0,0,0,0,0,380,
scooby_state_4550dc|9|1 378,0,0,0,0,0,0,0,0,0,0,0,1,0,1,380,
scooby_state_4550fa|16|1 380,0,0,0,0,0,0,0,0,0,0,0,0,0,0,380,
scooby_state_4550f4|17|1 379,0,0,1,0,0,0,0,0,0,0,0,0,0,0,380,
scooby_state_455113|55|1 379,0,0,0,0,0,0,0,0,0,0,0,0,1,0,380,
scooby_state_4550e2|20|1 378,0,0,0,1,0,0,0,0,0,1,0,0,0,0,380,
scooby_state_4550f4|51|1 380,0,0,0,0,0,0,0,0,0,0,0,0,0,0,380,
scooby_state_4550fa|17|1 380,0,0,0,0,0,0,0,0,0,0,0,0,0,0,380,
scooby_state_4550e2|18|1 380,0,0,0,0,0,0,0,0,0,0,0,0,0,0,380,
scooby_state_4550dc|11|1 379,0,0,0,0,0,0,0,0,0,0,0,1,0,0,380,
scooby_state_4550f4|50|1 379,0,0,0,0,0,0,0,0,0,0,0,0,0,1,380,
scooby_state_4550dc|19|1 379,0,0,0,0,0,0,0,0,0,0,0,1,0,0,380,
scooby_state_455113|23|1 379,0,0,0,0,0,1,0,0,0,0,0,0,0,0,380,
scooby_state_4550dc|54|1 380,0,0,0,0,0,0,0,0,0,0,0,0,0,0,380,
scooby_state_455113|37|1 379,1,0,0,0,0,0,0,0,0,0,0,0,0,0,380,
scooby_state_4550fa|46|1 380,0,0,0,0,0,0,0,0,0,0,0,0,0,0,380,
scooby_state_4550f4|52|1 378,0,0,0,0,0,0,0,0,0,0,1,1,0,0,380,
scooby_state_455113|39|1 379,0,0,0,0,0,1,0,0,0,0,0,0,0,0,380,
scooby_state_4550e2|41|1 380,0,0,0,0,0,0,0,0,0,0,0,0,0,0,380,
scooby_state_4550dc|10|1 380,0,0,0,0,0,0,0,0,0,0,0,0,0,0,380,
scooby_state_4550f4|55|1 380,0,0,0,0,0,0,0,0,0,0,0,0,0,0,380,
scooby_state_4550fa|62|1 380,0,0,0,0,0,0,0,0,0,0,0,0,0,0,380,
scooby_state_4550dc|22|1 380,0,0,0,0,0,0,0,0,0,0,0,0,0,0,380,
scooby_state_4550dc|43|1 380,0,0,0,0,0,0,0,0,0,0,0,0,0,0,380,
scooby_state_4550e2|50|1 378,0,0,0,1,0,0,0,0,0,0,1,0,0,0,380,
scooby_state_4550dc|49|1 380,0,0,0,0,0,0,0,0,0,0,0,0,0,0,380,
scooby_state_4550fa|50|1 380,0,0,0,0,0,0,0,0,0,0,0,0,0,0,380,
scooby_state_4550e2|42|1 379,0,0,0,0,0,0,0,0,0,0,0,0,1,0,380,
scooby_state_455113|36|1 380,0,0,0,0,0,0,0,0,0,0,0,0,0,0,380,
scooby_state_4550fa|63|1 378,0,0,0,0,1,0,0,0,0,1,0,0,0,0,380,
scooby_state_4550dc|51|1 380,0,0,0,0,0,0,0,0,0,0,0,0,0,0,380,
scooby_state_455113|27|1 380,0,0,0,0,0,0,0,0,0,0,0,0,0,0,380,
scooby_state_455113|22|1 378,0,0,0,0,0,1,1,0,0,0,0,0,0,0,380,
scooby_state_455113|38|1 380,0,0,0,0,0,0,0,0,0,0,0,0,0,0,380,
scooby_state_4550dc|5|1 379,0,0,0,0,0,0,0,1,0,0,0,0,0,0,380,
scooby_state_4550e2|48|1 379,0,0,1,0,0,0,0,0,0,0,0,0,0,0,380,
scooby_state_4550e2|55|1 378,0,0,1,0,0,0,0,0,0,1,0,0,0,0,380,
scooby_state_4550e2|52|1 379,0,0,0,0,0,0,0,0,0,0,0,0,0,1,380,
scooby_state_455113|25|1 380,0,0,0,0,0,0,0,0,0,0,0,0,0,0,380,
scooby_state_4550fa|7|1 379,0,0,0,0,0,0,0,0,1,0,0,0,0,0,380,
scooby_state_4550e2|40|1 378,0,0,0,0,0,0,0,0,0,1,1,0,0,0,380,
scooby_state_4550dc|42|1 380,0,0,0,0,0,0,0,0,0,0,0,0,0,0,380,
scooby_state_4550dc|56|1 380,0,0,0,0,0,0,0,0,0,0,0,0,0,0,380,
scooby_state_4550dc|41|1 379,0,0,0,0,0,0,0,0,0,0,0,0,1,0,380,
scooby_state_4550fa|48|1 379,1,0,0,0,0,0,0,0,0,0,0,0,0,0,380,
scooby_state_4550f4|49|1 380,0,0,0,0,0,0,0,0,0,0,0,0,0,0,380,
scooby_state_4550dc|33|1 380,0,0,0,0,0,0,0,0,0,0,0,0,0,0,380,
scooby_state_4550f4|57|1 379,0,0,0,0,0,0,0,1,0,0,0,0,0,0,380,
scooby_state_4550dc|52|1 380,0,0,0,0,0,0,0,0,0,0,0,0,0,0,380,
scooby_state_4550f4|2|1 380,0,0,0,0,0,0,0,0,0,0,0,0,0,0,380,
scooby_state_4550dc|58|1 379,0,1,0,0,0,0,0,0,0,0,0,0,0,0,380,
scooby_state_4550fa|33|1 380,0,0,0,0,0,0,0,0,0,0,0,0,0,0,380,
scooby_state_4550e2|47|1 380,0,0,0,0,0,0,0,0,0,0,0,0,0,0,380,
scooby_state_4550fa|55|1 379,0,0,0,0,0,0,0,0,0,0,1,0,0,0,380,
scooby_state_455113|31|1 379,1,0,0,0,0,0,0,0,0,0,0,0,0,0,380,
scooby_state_4550e2|33|1 378,0,0,0,1,0,0,1,0,0,0,0,0,0,0,380,
scooby_state_4550dc|26|1 378,0,0,0,0,0,0,1,0,0,0,0,0,0,1,380,
scooby_state_4550f4|36|1 380,0,0,0,0,0,0,0,0,0,0,0,0,0,0,380,
scooby_state_4550e2|51|1 380,0,0,0,0,0,0,0,0,0,0,0,0,0,0,380,
scooby_state_455113|42|1 380,0,0,0,0,0,0,0,0,0,0,0,0,0,0,380,
scooby_state_4550e2|49|1 379,0,0,0,1,0,0,0,0,0,0,0,0,0,0,380,
scooby_state_4550fa|11|1 379,0,0,0,0,0,0,0,0,0,0,1,0,0,0,380,
scooby_state_455113|33|1 380,0,0,0,0,0,0,0,0,0,0,0,0,0,0,380,
scooby_state_4550fa|57|1 380,0,0,0,0,0,0,0,0,0,0,0,0,0,0,380,
scooby_state_455113|32|1 379,0,0,0,0,0,0,1,0,0,0,0,0,0,0,380,
scooby_state_4550f4|44|1 379,0,0,0,0,0,0,1,0,0,0,0,0,0,0,380,
scooby_state_4550dc|44|1 380,0,0,0,0,0,0,0,0,0,0,0,0,0,0,380,
scooby_state_4550fa|51|1 380,0,0,0,0,0,0,0,0,0,0,0,0,0,0,380,
scooby_state_4550e2|43|1 379,0,0,1,0,0,0,0,0,0,0,0,0,0,0,380,
scooby_state_4550fa|4|1 380,0,0,0,0,0,0,0,0,0,0,0,0,0,0,380,
scooby_state_4550f4|62|1 379,0,0,0,0,0,0,0,0,0,0,1,0,0,0,380,
scooby_state_4550e2|63|1 375,1,0,0,0,2,0,0,2,0,0,0,0,0,0,380,
scooby_state_4550fa|58|1 379,0,0,0,0,0,0,0,0,0,1,0,0,0,0,380,
scooby_state_4550f4|53|1 380,0,0,0,0,0,0,0,0,0,0,0,0,0,0,380,
scooby_state_455113|13|1 380,0,0,0,0,0,0,0,0,0,0,0,0,0,0,380,
scooby_state_455113|29|1 380,0,0,0,0,0,0,0,0,0,0,0,0,0,0,380,
scooby_state_4550f4|61|1 380,0,0,0,0,0,0,0,0,0,0,0,0,0,0,380,
scooby_state_4550e2|45|1 379,1,0,0,0,0,0,0,0,0,0,0,0,0,0,380,
scooby_state_4550fa|60|1 380,0,0,0,0,0,0,0,0,0,0,0,0,0,0,380,
scooby_state_4550f4|54|1 379,0,0,0,0,0,0,0,0,0,0,0,0,0,1,380,
scooby_state_4550dc|46|1 380,0,0,0,0,0,0,0,0,0,0,0,0,0,0,380,
scooby_state_4550fa|53|1 379,0,0,0,0,0,1,0,0,0,0,0,0,0,0,380,
scooby_state_455113|28|1 380,0,0,0,0,0,0,0,0,0,0,0,0,0,0,380,
scooby_state_4550e2|31|1 380,0,0,0,0,0,0,0,0,0,0,0,0,0,0,380,
scooby_state_455113|40|1 380,0,0,0,0,0,0,0,0,0,0,0,0,0,0,380,
scooby_state_4550fa|42|1 380,0,0,0,0,0,0,0,0,0,0,0,0,0,0,380,
scooby_state_455113|17|1 379,0,0,0,0,0,0,1,0,0,0,0,0,0,0,380,
scooby_state_4550dc|53|1 380,0,0,0,0,0,0,0,0,0,0,0,0,0,0,380,
scooby_state_455113|24|1 380,0,0,0,0,0,0,0,0,0,0,0,0,0,0,380,
scooby_state_4550dc|31|1 379,0,1,0,0,0,0,0,0,0,0,0,0,0,0,380,
scooby_state_4550e2|7|1 380,0,0,0,0,0,0,0,0,0,0,0,0,0,0,380,
scooby_state_4550dc|61|1 380,0,0,0,0,0,0,0,0,0,0,0,0,0,0,380,
scooby_state_4550dc|4|1 380,0,0,0,0,0,0,0,0,0,0,0,0,0,0,380,
scooby_state_4550dc|32|1 378,1,0,0,0,0,0,1,0,0,0,0,0,0,0,380,
scooby_state_4550dc|36|1 380,0,0,0,0,0,0,0,0,0,0,0,0,0,0,380,
scooby_state_4550e2|5|1 378,1,0,0,0,0,0,0,0,1,0,0,0,0,0,380,
scooby_state_4550fa|43|1 380,0,0,0,0,0,0,0,0,0,0,0,0,0,0,380,
scooby_state_4550e2|56|1 379,0,1,0,0,0,0,0,0,0,0,0,0,0,0,380,
scooby_state_455113|56|1 380,0,0,0,0,0,0,0,0,0,0,0,0,0,0,380,
scooby_state_4550dc|45|1 380,0,0,0,0,0,0,0,0,0,0,0,0,0,0,380,
scooby_state_4550dc|40|1 380,0,0,0,0,0,0,0,0,0,0,0,0,0,0,380,
scooby_state_4550e2|34|1 380,0,0,0,0,0,0,0,0,0,0,0,0,0,0,380,
scooby_state_4550f4|40|1 379,0,0,0,0,0,0,0,0,0,0,0,0,1,0,380,
scooby_state_455113|16|1 380,0,0,0,0,0,0,0,0,0,0,0,0,0,0,380,
scooby_state_4550dc|63|1 380,0,0,0,0,0,0,0,0,0,0,0,0,0,0,380,
scooby_state_4550f4|43|1 379,0,0,0,0,0,0,1,0,0,0,0,0,0,0,380,
scooby_state_4550e2|35|1 380,0,0,0,0,0,0,0,0,0,0,0,0,0,0,380,
scooby_state_4550e2|54|1 379,0,0,0,0,1,0,0,0,0,0,0,0,0,0,380,
scooby_state_4550fa|41|1 380,0,0,0,0,0,0,0,0,0,0,0,0,0,0,380,
scooby_state_4550dc|34|1 379,0,0,1,0,0,0,0,0,0,0,0,0,0,0,380,
scooby_state_4550fa|61|1 380,0,0,0,0,0,0,0,0,0,0,0,0,0,0,380,
scooby_state_455113|26|1 380,0,0,0,0,0,0,0,0,0,0,0,0,0,0,380,
scooby_state_455113|35|1 380,0,0,0,0,0,0,0,0,0,0,0,0,0,0,380,
scooby_state_455113|41|1 379,0,0,0,0,0,0,1,0,0,0,0,0,0,0,380,
scooby_state_4550e2|32|1 377,1,0,0,0,1,0,0,0,0,0,0,0,1,0,380,
scooby_state_4550fa|2|1 379,0,0,0,0,0,0,0,0,0,0,0,0,0,1,380,
scooby_state_4550f4|11|1 380,0,0,0,0,0,0,0,0,0,0,0,0,0,0,380,
scooby_state_4550f4|48|1 378,0,0,0,0,0,1,1,0,0,0,0,0,0,0,380,
scooby_state_4550e2|39|1 379,0,0,1,0,0,0,0,0,0,0,0,0,0,0,380,
scooby_state_455113|11|1 380,0,0,0,0,0,0,0,0,0,0,0,0,0,0,380,
scooby_state_4550e2|44|1 379,0,0,1,0,0,0,0,0,0,0,0,0,0,0,380,
scooby_state_4550f4|0|0 379,0,0,0,0,1,0,0,0,0,0,0,0,0,0,380,
scooby_state_4550f4|47|1 380,0,0,0,0,0,0,0,0,0,0,0,0,0,0,380,
scooby_state_4550e2|38|1 379,0,0,0,0,0,0,0,0,0,0,0,0,1,0,380,
scooby_state_455113|9|1 379,0,0,0,1,0,0,0,0,0,0,0,0,0,0,380,
scooby_state_4550fa|12|1 379,0,0,0,0,0,0,0,0,0,1,0,0,0,0,380,
scooby_state_4550f4|46|1 380,0,0,0,0,0,0,0,0,0,0,0,0,0,0,380,
scooby_state_4550f4|18|1 379,0,0,0,0,0,0,0,0,1,0,0,0,0,0,380,
scooby_state_4550fa|45|1 380,0,0,0,0,0,0,0,0,0,0,0,0,0,0,380,
scooby_state_4550e2|37|1 380,0,0,0,0,0,0,0,0,0,0,0,0,0,0,380,
scooby_state_4550f4|59|1 380,0,0,0,0,0,0,0,0,0,0,0,0,0,0,380,
scooby_state_455113|34|1 379,0,0,0,0,0,0,0,0,0,0,0,1,0,0,380,
scooby_state_4550fa|29|1 379,0,0,0,0,0,0,0,1,0,0,0,0,0,0,380,
scooby_state_4550fa|49|1 380,0,0,0,0,0,0,0,0,0,0,0,0,0,0,380,
scooby_state_4550dc|50|1 380,0,0,0,0,0,0,0,0,0,0,0,0,0,0,380,
scooby_state_4550f4|30|1 380,0,0,0,0,0,0,0,0,0,0,0,0,0,0,380,
scooby_state_4550f4|4|1 379,0,0,0,1,0,0,0,0,0,0,0,0,0,0,380,
scooby_state_4550fa|40|1 380,0,0,0,0,0,0,0,0,0,0,0,0,0,0,380,
scooby_state_4550fa|1|1 380,0,0,0,0,0,0,0,0,0,0,0,0,0,0,380,
scooby_state_4550e2|36|1 379,0,0,0,0,0,0,1,0,0,0,0,0,0,0,380,
scooby_state_4550e2|57|1 379,0,0,1,0,0,0,0,0,0,0,0,0,0,0,380,
scooby_state_4550dc|38|1 378,0,0,0,1,0,0,0,0,0,0,0,0,0,1,380,
scooby_state_4550f4|35|1 379,0,0,0,0,0,0,0,1,0,0,0,0,0,0,380,
scooby_state_4550dc|57|1 380,0,0,0,0,0,0,0,0,0,0,0,0,0,0,380,
scooby_state_4550fa|44|1 379,0,0,0,0,0,0,0,0,0,1,0,0,0,0,380,
scooby_state_4550f4|31|1 380,0,0,0,0,0,0,0,0,0,0,0,0,0,0,380,
scooby_state_455101|4|1 376,0,1,0,0,0,0,0,0,0,0,0,0,0,0,377,
scooby_state_455101|50|1 375,0,0,0,0,0,0,1,0,0,0,0,0,0,0,376,
scooby_state_4550bc|5|1 375,0,0,0,0,0,1,0,0,0,0,0,0,0,0,376,
scooby_state_455101|60|1 376,0,0,0,0,0,0,0,0,0,0,0,0,0,0,376,
scooby_state_455101|61|1 376,0,0,0,0,0,0,0,0,0,0,0,0,0,0,376,
scooby_state_4550a8|33|1 376,0,0,0,0,0,0,0,0,0,0,0,0,0,0,376,
scooby_state_4550bc|53|1 376,0,0,0,0,0,0,0,0,0,0,0,0,0,0,376,
scooby_state_455101|52|1 375,0,0,0,1,0,0,0,0,0,0,0,0,0,0,376,
scooby_state_4550b6|51|1 376,0,0,0,0,0,0,0,0,0,0,0,0,0,0,376,
scooby_state_455101|56|1 374,0,0,0,0,1,0,1,0,0,0,0,0,0,0,376,
scooby_state_4550b6|63|1 376,0,0,0,0,0,0,0,0,0,0,0,0,0,0,376,
scooby_state_4550bc|52|1 376,0,0,0,0,0,0,0,0,0,0,0,0,0,0,376,
scooby_state_4550a8|29|1 376,0,0,0,0,0,0,0,0,0,0,0,0,0,0,376,
scooby_state_455101|51|1 375,0,0,0,0,0,0,1,0,0,0,0,0,0,0,376,
scooby_state_455101|33|1 376,0,0,0,0,0,0,0,0,0,0,0,0,0,0,376,
scooby_state_455101|29|1 374,0,0,0,0,1,1,0,0,0,0,0,0,0,0,376,
scooby_state_4550a8|40|1 373,0,0,0,0,1,0,0,0,0,1,0,1,0,0,376,
scooby_state_4550a8|53|1 374,0,0,0,0,0,0,0,0,1,0,0,0,0,1,376,
scooby_state_4550bc|4|1 375,0,0,0,0,0,0,0,0,0,0,0,0,1,0,376,
scooby_state_4550bc|6|1 376,0,0,0,0,0,0,0,0,0,0,0,0,0,0,376,
scooby_state_455101|7|1 376,0,0,0,0,0,0,0,0,0,0,0,0,0,0,376,
scooby_state_455101|34|1 375,0,0,0,0,0,0,0,0,0,0,1,0,0,0,376,
scooby_state_4550bc|32|1 374,0,1,0,0,0,0,0,0,0,0,0,0,0,1,376,
scooby_state_4550a8|5|1 376,0,0,0,0,0,0,0,0,0,0,0,0,0,0,376,
scooby_state_4550b6|43|1 374,1,0,0,0,0,0,0,0,0,0,1,0,0,0,376,
scooby_state_455101|28|1 375,1,0,0,0,0,0,0,0,0,0,0,0,0,0,376,
scooby_state_4550b6|38|1 373,0,0,1,0,0,1,0,1,0,0,0,0,0,0,376,
scooby_state_4550b6|32|1 375,0,0,0,0,0,0,0,0,0,0,0,0,0,1,376,
scooby_state_4550ca|39|1 376,0,0,0,0,0,0,0,0,0,0,0,0,0,0,376,
scooby_state_4550b6|40|1 376,0,0,0,0,0,0,0,0,0,0,0,0,0,0,376,
scooby_state_4550a8|46|1 375,0,0,0,0,0,0,1,0,0,0,0,0,0,0,376,
scooby_state_455101|44|1 376,0,0,0,0,0,0,0,0,0,0,0,0,0,0,376,
scooby_state_455101|2|1 376,0,0,0,0,0,0,0,0,0,0,0,0,0,0,376,
scooby_state_4550b6|53|1 374,0,0,0,0,1,0,0,0,0,0,1,0,0,0,376,
scooby_state_4550b6|39|1 376,0,0,0,0,0,0,0,0,0,0,0,0,0,0,376,
scooby_state_455101|36|1 376,0,0,0,0,0,0,0,0,0,0,0,0,0,0,376,
scooby_state_4550bc|56|1 375,0,0,0,1,0,0,0,0,0,0,0,0,0,0,376,
scooby_state_4550a8|30|1 375,0,0,0,0,0,1,0,0,0,0,0,0,0,0,376,
scooby_state_4550a8|2|1 376,0,0,0,0,0,0,0,0,0,0,0,0,0,0,376,
scooby_state_4550b6|50|1 376,0,0,0,0,0,0,0,0,0,0,0,0,0,0,376,
scooby_state_4550bc|2|1 375,0,0,0,0,0,0,0,0,0,0,0,0,1,0,376,
scooby_state_4550ca|58|1 374,0,0,0,0,0,0,0,1,0,0,0,1,0,0,376,
scooby_state_4550bc|47|1 376,0,0,0,0,0,0,0,0,0,0,0,0,0,0,376,
scooby_state_455101|39|1 376,0,0,0,0,0,0,0,0,0,0,0,0,0,0,376,
scooby_state_4550bc|61|1 375,0,0,0,1,0,0,0,0,0,0,0,0,0,0,376,
scooby_state_4550bc|39|1 376,0,0,0,0,0,0,0,0,0,0,0,0,0,0,376,
scooby_state_4550a8|4|1 375,0,0,0,0,0,0,0,0,0,0,0,1,0,0,376,
scooby_state_4550a8|56|1 374,0,0,0,0,1,0,0,1,0,0,0,0,0,0,376,
scooby_state_4550a8|47|1 374,0,0,0,0,0,0,0,0,0,0,0,0,0,2,376,
scooby_state_455101|63|1 375,0,0,0,0,0,0,0,0,0,1,0,0,0,0,376,
scooby_state_4550b6|33|1 376,0,0,0,0,0,0,0,0,0,0,0,0,0,0,376,
scooby_state_4550a8|34|1 376,0,0,0,0,0,0,0,0,0,0,0,0,0,0,376,
scooby_state_4550a8|51|1 374,0,2,0,0,0,0,0,0,0,0,0,0,0,0,376,
scooby_state_455101|3|1 374,0,0,0,0,0,0,0,1,0,0,1,0,0,0,376,
scooby_state_4550b6|34|1 374,0,0,0,0,1,0,0,0,0,0,1,0,0,0,376,
scooby_state_4550bc|40|1 376,0,0,0,0,0,0,0,0,0,0,0,0,0,0,376,
scooby_state_455101|54|1 375,0,0,0,0,0,0,0,0,1,0,0,0,0,0,376,
scooby_state_455101|43|1 376,0,0,0,0,0,0,0,0,0,0,0,0,0,0,376,
scooby_state_4550bc|58|1 373,1,0,0,0,0,1,0,0,0,1,0,0,0,0,376,
scooby_state_4550bc|36|1 376,0,0,0,0,0,0,0,0,0,0,0,0,0,0,376,
scooby_state_4550a8|38|1 375,0,0,0,0,0,0,0,0,0,0,1,0,0,0,376,
scooby_state_455101|49|1 375,0,0,0,0,0,0,0,1,0,0,0,0,0,0,376,
scooby_state_455101|46|1 376,0,0,0,0,0,0,0,0,0,0,0,0,0,0,376,
scooby_state_4550b6|52|1 376,0,0,0,0,0,0,0,0,0,0,0,0,0,0,376,
scooby_state_4550a8|45|1 375,0,0,0,0,0,0,0,0,1,0,0,0,0,0,376,
scooby_state_4550ca|57|1 376,0,0,0,0,0,0,0,0,0,0,0,0,0,0,376,
scooby_state_455101|38|1 375,0,0,0,0,0,0,0,0,0,0,0,0,0,1,376,
scooby_state_455101|5|1 376,0,0,0,0,0,0,0,0,0,0,0,0,0,0,376,
scooby_state_4550b6|3|1 375,0,0,0,0,0,0,0,0,0,0,1,0,0,0,376,
scooby_state_4550a8|62|1 376,0,0,0,0,0,0,0,0,0,0,0,0,0,0,376,
scooby_state_4550a8|48|1 374,1,1,0,0,0,0,0,0,0,0,0,0,0,0,376,
scooby_state_4550ca|2|1 376,0,0,0,0,0,0,0,0,0,0,0,0,0,0,376,
scooby_state_4550ca|40|1 376,0,0,0,0,0,0,0,0,0,0,0,0,0,0,376,
scooby_state_4550bc|42|1 376,0,0,0,0,0,0,0,0,0,0,0,0,0,0,376,
scooby_state_4550a8|3|1 376,0,0,0,0,0,0,0,0,0,0,0,0,0,0,376,
scooby_state_4550bc|3|1 376,0,0,0,0,0,0,0,0,0,0,0,0,0,0,376,
scooby_state_4550bc|29|1 375,0,1,0,0,0,0,0,0,0,0,0,0,0,0,376,
scooby_state_4550ca|42|1 376,0,0,0,0,0,0,0,0,0,0,0,0,0,0,376,
scooby_state_4550ca|60|1 375,0,0,0,0,0,0,0,0,1,0,0,0,0,0,376,
scooby_state_4550b6|2|1 375,0,0,0,0,1,0,0,0,0,0,0,0,0,0,376,
scooby_state_4550a8|59|1 375,0,0,0,1,0,0,0,0,0,0,0,0,0,0,376,
scooby_state_4550bc|45|1 376,0,0,0,0,0,0,0,0,0,0,0,0,0,0,376,
scooby_state_4550a8|39|1 376,0,0,0,0,0,0,0,0,0,0,0,0,0,0,376,
scooby_state_455101|42|1 376,0,0,0,0,0,0,0,0,0,0,0,0,0,0,376,
scooby_state_455101|53|1 376,0,0,0,0,0,0,0,0,0,0,0,0,0,0,376,
scooby_state_455101|31|1 376,0,0,0,0,0,0,0,0,0,0,0,0,0,0,376,
scooby_state_4550ca|41|1 376,0,0,0,0,0,0,0,0,0,0,0,0,0,0,376,
scooby_state_4550a8|44|1 376,0,0,0,0,0,0,0,0,0,0,0,0,0,0,376,
scooby_state_4550b6|44|1 374,0,0,1,1,0,0,0,0,0,0,0,0,0,0,376,
scooby_state_4550bc|59|1 375,0,0,1,0,0,0,0,0,0,0,0,0,0,0,376,
scooby_state_4550a8|42|1 376,0,0,0,0,0,0,0,0,0,0,0,0,0,0,376,
scooby_state_4550bc|8|1 375,0,1,0,0,0,0,0,0,0,0,0,0,0,0,376,
scooby_state_4550bc|43|1 375,0,0,0,0,0,0,0,1,0,0,0,0,0,0,376,
scooby_state_4550b6|46|1 372,0,0,0,2,0,0,0,0,0,0,1,1,0,0,376,
scooby_state_4550ca|43|1 376,0,0,0,0,0,0,0,0,0,0,0,0,0,0,376,
scooby_state_4550b6|41|1 373,1,0,0,0,0,0,0,1,0,0,0,0,1,0,376,
scooby_state_4550bc|44|1 373,0,0,0,0,1,0,0,0,0,0,0,1,0,1,376,
scooby_state_4550ca|44|1 376,0,0,0,0,0,0,0,0,0,0,0,0,0,0,376,
scooby_state_4550a8|6|1 375,0,1,0,0,0,0,0,0,0,0,0,0,0,0,376,
scooby_state_455101|30|1 375,0,0,0,0,0,1,0,0,0,0,0,0,0,0,376,
scooby_state_4550bc|51|1 376,0,0,0,0,0,0,0,0,0,0,0,0,0,0,376,
scooby_state_455101|45|1 374,0,0,0,1,1,0,0,0,0,0,0,0,0,0,376,
scooby_state_4550ca|45|1 373,0,0,0,0,0,1,0,0,0,0,1,0,1,0,376,
scooby_state_4550bc|41|1 375,0,0,0,0,0,1,0,0,0,0,0,0,0,0,376,
scooby_state_4550bc|46|1 376,0,0,0,0,0,0,0,0,0,0,0,0,0,0,376,
scooby_state_4550ca|46|1 375,0,0,0,0,0,1,0,0,0,0,0,0,0,0,376,
scooby_state_4550ca|3|1 375,0,0,0,0,0,0,0,0,0,1,0,0,0,0,376,
scooby_state_455101|47|1 376,0,0,0,0,0,0,0,0,0,0,0,0,0,0,376,
scooby_state_4550ca|1|1 375,0,0,0,0,0,0,0,0,0,0,0,1,0,0,376,
scooby_state_455101|1|1 376,0,0,0,0,0,0,0,0,0,0,0,0,0,0,376,
scooby_state_4550a8|1|1 376,0,0,0,0,0,0,0,0,0,0,0,0,0,0,376,
scooby_state_4550ca|63|1 375,0,0,1,0,0,0,0,0,0,0,0,0,0,0,376,
scooby_state_455101|48|1 374,0,0,0,0,0,0,0,0,1,0,0,0,0,1,376,
scooby_state_4550b6|47|1 376,0,0,0,0,0,0,0,0,0,0,0,0,0,0,376,
scooby_state_4550b6|62|1 375,0,0,1,0,0,0,0,0,0,0,0,0,0,0,376,
scooby_state_4550ca|62|1 376,0,0,0,0,0,0,0,0,0,0,0,0,0,0,376,
scooby_state_4550a8|63|1 375,0,0,0,0,0,0,0,0,1,0,0,0,0,0,376,
scooby_state_4550bc|63|1 375,0,0,0,0,0,0,0,0,0,0,1,0,0,0,376,
scooby_state_4550ca|47|1 375,0,0,0,0,0,0,0,0,0,0,1,0,0,0,376,
scooby_state_4550bc|48|1 376,0,0,0,0,0,0,0,0,0,0,0,0,0,0,376,
scooby_state_4550bc|28|1 374,1,0,0,1,0,0,0,0,0,0,0,0,0,0,376,
scooby_state_4550a8|28|1 375,1,0,0,0,0,0,0,0,0,0,0,0,0,0,376,
scooby_state_4550bc|30|1 376,0,0,0,0,0,0,0,0,0,0,0,0,0,0,376,
scooby_state_455101|6|1 375,0,0,0,0,0,0,0,1,0,0,0,0,0,0,376,
scooby_state_4550bc|31|1 376,0,0,0,0,0,0,0,0,0,0,0,0,0,0,376,
scooby_state_4550a8|31|1 376,0,0,0,0,0,0,0,0,0,0,0,0,0,0,376,
scooby_state_455101|32|1 375,0,0,0,0,0,0,1,0,0,0,0,0,0,0,376,
scooby_state_4550a8|41|1 373,0,0,0,1,0,0,0,0,1,0,0,1,0,0,376,
scooby_state_455101|40|1 376,0,0,0,0,0,0,0,0,0,0,0,0,0,0,376,
scooby_state_4550a8|35|1 376,0,0,0,0,0,0,0,0,0,0,0,0,0,0,376,
scooby_state_4550a8|32|1 376,0,0,0,0,0,0,0,0,0,0,0,0,0,0,376,
scooby_state_4550bc|33|1 376,0,0,0,0,0,0,0,0,0,0,0,0,0,0,376,
scooby_state_4550a8|43|1 375,0,0,0,0,0,0,0,0,0,1,0,0,0,0,376,
scooby_state_4550a8|55|1 375,0,0,0,0,0,0,0,0,0,0,0,0,0,1,376,
scooby_state_4550bc|35|1 376,0,0,0,0,0,0,0,0,0,0,0,0,0,0,376,
scooby_state_455101|35|1 374,0,0,1,1,0,0,0,0,0,0,0,0,0,0,376,
scooby_state_4550a8|52|1 375,0,0,1,0,0,0,0,0,0,0,0,0,0,0,376,
scooby_state_4550a8|54|1 375,0,0,0,1,0,0,0,0,0,0,0,0,0,0,376,
scooby_state_4550b6|42|1 376,0,0,0,0,0,0,0,0,0,0,0,0,0,0,376,
scooby_state_4550a8|36|1 376,0,0,0,0,0,0,0,0,0,0,0,0,0,0,376,
scooby_state_4550bc|37|1 376,0,0,0,0,0,0,0,0,0,0,0,0,0,0,376,
scooby_state_4550a8|37|1 373,1,0,0,0,1,0,0,0,0,0,0,0,0,1,376,
scooby_state_455101|37|1 376,0,0,0,0,0,0,0,0,0,0,0,0,0,0,376,
scooby_state_4550b6|37|1 372,0,0,0,1,0,0,0,0,1,0,1,0,1,0,376,
scooby_state_455101|41|1 376,0,0,0,0,0,0,0,0,0,0,0,0,0,0,376,
scooby_state_4550bc|38|1 375,1,0,0,0,0,0,0,0,0,0,0,0,0,0,376,
scooby_state_4550bc|34|1 374,0,0,2,0,0,0,0,0,0,0,0,0,0,0,376,
scooby_state_4550ca|38|1 374,0,1,0,0,0,0,0,0,0,1,0,0,0,0,376,
scooby_state_4550a8|60|1 375,0,0,0,0,0,0,0,0,0,0,0,0,1,0,376,
scooby_state_4550a8|58|1 375,0,0,0,0,0,0,0,0,0,0,0,1,0,0,376,
scooby_state_4550a8|7|1 374,0,0,0,0,0,0,0,1,0,1,0,0,0,0,376,
scooby_state_455101|58|1 376,0,0,0,0,0,0,0,0,0,0,0,0,0,0,376,
scooby_state_4550bc|50|1 376,0,0,0,0,0,0,0,0,0,0,0,0,0,0,376,
scooby_state_4550a8|50|1 376,0,0,0,0,0,0,0,0,0,0,0,0,0,0,376,
scooby_state_4550a8|61|1 376,0,0,0,0,0,0,0,0,0,0,0,0,0,0,376,
scooby_state_4550b6|60|1 376,0,0,0,0,0,0,0,0,0,0,0,0,0,0,376,
scooby_state_4550bc|7|1 376,0,0,0,0,0,0,0,0,0,0,0,0,0,0,376,
scooby_state_4550a8|8|1 375,0,0,0,1,0,0,0,0,0,0,0,0,0,0,376,
scooby_state_455101|59|1 374,0,0,0,0,0,0,1,0,1,0,0,0,0,0,376,
scooby_state_4550bc|49|1 376,0,0,0,0,0,0,0,0,0,0,0,0,0,0,376,
scooby_state_455101|8|1 374,0,0,0,0,0,1,0,0,1,0,0,0,0,0,376,
scooby_state_4550bc|60|1 376,0,0,0,0,0,0,0,0,0,0,0,0,0,0,376,
scooby_state_4550a8|49|1 375,0,0,0,0,0,0,0,0,0,0,0,0,0,1,376,
scooby_state_4550b6|49|1 375,0,0,0,0,0,0,0,0,0,0,0,0,1,0,376,
scooby_state_4550ca|59|1 375,0,0,0,1,0,0,0,0,0,0,0,0,0,0,376,
scooby_state_4550bc|55|1 375,0,0,0,0,1,0,0,0,0,0,0,0,0,0,376,
scooby_state_455101|55|1 374,0,0,0,0,0,0,0,0,1,0,1,0,0,0,376,
scooby_state_4550b6|59|1 375,0,0,0,0,0,0,1,0,0,0,0,0,0,0,376,
scooby_state_4550b6|55|1 376,0,0,0,0,0,0,0,0,0,0,0,0,0,0,376,
scooby_state_455101|62|1 376,0,0,0,0,0,0,0,0,0,0,0,0,0,0,376,
scooby_state_4550b6|1|1 376,0,0,0,0,0,0,0,0,0,0,0,0,0,0,376,
scooby_state_4550bc|1|1 376,0,0,0,0,0,0,0,0,0,0,0,0,0,0,376,
scooby_state_4550b6|45|1 375,0,0,0,1,0,0,0,0,0,0,0,0,0,0,376,
scooby_state_4550b6|61|1 375,0,0,1,0,0,0,0,0,0,0,0,0,0,0,376,
scooby_state_4550b6|56|1 374,0,0,0,1,0,0,0,0,0,0,0,0,1,0,376,
scooby_state_4550bc|57|1 376,0,0,0,0,0,0,0,0,0,0,0,0,0,0,376,
scooby_state_4550bc|54|1 374,0,0,0,0,0,2,0,0,0,0,0,0,0,0,376,
scooby_state_4550b6|54|1 376,0,0,0,0,0,0,0,0,0,0,0,0,0,0,376,
scooby_state_455101|57|1 376,0,0,0,0,0,0,0,0,0,0,0,0,0,0,376,
scooby_state_4550ca|61|1 375,0,0,0,0,0,0,0,0,0,0,1,0,0,0,376,
scooby_state_4550a8|57|1 376,0,0,0,0,0,0,0,0,0,0,0,0,0,0,376,
scooby_state_4550b6|48|1 375,0,0,0,0,0,0,0,0,1,0,0,0,0,0,376,
scooby_state_4550bc|62|1 376,0,0,0,0,0,0,0,0,0,0,0,0,0,0,376,
scooby_state_4550ca|24|1 375,0,0,0,0,0,0,0,0,0,0,0,0,0,0,375,
scooby_state_4550bc|26|1 375,0,0,0,0,0,0,0,0,0,0,0,0,0,0,375,
scooby_state_4550b6|12|1 373,0,0,0,0,1,0,0,0,0,0,1,0,0,0,375,
scooby_state_4550bc|20|1 374,0,0,0,0,0,0,0,1,0,0,0,0,0,0,375,
scooby_state_4550bc|17|1 374,0,0,0,0,1,0,0,0,0,0,0,0,0,0,375,
scooby_state_4550b6|7|1 375,0,0,0,0,0,0,0,0,0,0,0,0,0,0,375,
scooby_state_4550b6|29|1 373,0,0,0,0,0,0,0,0,0,0,0,0,1,1,375,
scooby_state_4550ca|20|1 375,0,0,0,0,0,0,0,0,0,0,0,0,0,0,375,
scooby_state_4550bc|12|1 374,0,0,0,0,0,0,1,0,0,0,0,0,0,0,375,
scooby_state_4550b6|22|1 375,0,0,0,0,0,0,0,0,0,0,0,0,0,0,375,
scooby_state_4550a8|19|1 375,0,0,0,0,0,0,0,0,0,0,0,0,0,0,375,
scooby_state_455101|16|1 374,0,0,1,0,0,0,0,0,0,0,0,0,0,0,375,
scooby_state_4550bc|21|1 374,0,0,0,0,0,0,0,0,0,0,0,0,0,1,375,
scooby_state_4550ca|56|1 375,0,0,0,0,0,0,0,0,0,0,0,0,0,0,375,
scooby_state_4550b6|20|1 375,0,0,0,0,0,0,0,0,0,0,0,0,0,0,375,
scooby_state_4550b6|31|1 375,0,0,0,0,0,0,0,0,0,0,0,0,0,0,375,
scooby_state_4550b6|35|1 374,0,1,0,0,0,0,0,0,0,0,0,0,0,0,375,
scooby_state_4550ca|50|1 374,0,0,1,0,0,0,0,0,0,0,0,0,0,0,375,
scooby_state_4550b6|19|1 375,0,0,0,0,0,0,0,0,0,0,0,0,0,0,375,
scooby_state_4550ca|55|1 372,0,0,0,0,0,1,0,1,0,0,1,0,0,0,375,
scooby_state_455101|13|1 375,0,0,0,0,0,0,0,0,0,0,0,0,0,0,375,
scooby_state_455101|21|1 373,0,0,0,0,0,0,1,0,0,0,0,1,0,0,375,
scooby_state_4550ca|35|1 375,0,0,0,0,0,0,0,0,0,0,0,0,0,0,375,
scooby_state_4550b6|57|1 374,0,0,0,0,0,0,0,0,1,0,0,0,0,0,375,
scooby_state_4550b6|36|1 373,0,1,1,0,0,0,0,0,0,0,0,0,0,0,375,
scooby_state_4550a8|18|1 375,0,0,0,0,0,0,0,0,0,0,0,0,0,0,375,
scooby_state_455101|11|1 374,0,0,0,0,0,0,0,0,0,0,0,1,0,0,375,
scooby_state_4550ca|17|1 375,0,0,0,0,0,0,0,0,0,0,0,0,0,0,375,
scooby_state_4550b6|58|1 374,0,0,0,0,0,0,0,0,0,0,0,0,0,1,375,
scooby_state_4550a8|13|1 375,0,0,0,0,0,0,0,0,0,0,0,0,0,0,375,
scooby_state_4550b6|23|1 374,0,0,0,0,0,0,0,0,0,0,0,0,0,1,375,
scooby_state_4550ca|37|1 375,0,0,0,0,0,0,0,0,0,0,0,0,0,0,375,
scooby_state_4550bc|14|1 374,0,0,0,0,0,0,0,0,0,0,0,1,0,0,375,
scooby_state_455101|17|1 374,0,0,0,0,0,0,0,0,1,0,0,0,0,0,375,
scooby_state_4550bc|19|1 374,0,0,0,1,0,0,0,0,0,0,0,0,0,0,375,
scooby_state_455101|19|1 373,0,0,0,0,0,0,0,0,0,1,0,0,1,0,375,
scooby_state_4550bc|25|1 374,0,0,0,0,0,0,1,0,0,0,0,0,0,0,375,
scooby_state_455101|20|1 374,0,0,0,0,0,0,1,0,0,0,0,0,0,0,375,
scooby_state_4550a8|25|1 373,0,0,0,0,0,1,0,0,0,1,0,0,0,0,375,
scooby_state_4550a8|15|1 374,0,0,0,0,0,0,0,0,0,0,0,1,0,0,375,
scooby_state_4550ca|22|1 375,0,0,0,0,0,0,0,0,0,0,0,0,0,0,375,
scooby_state_4550b6|24|1 374,0,0,0,0,0,0,0,0,0,0,0,0,0,1,375,
scooby_state_455101|10|1 374,0,0,0,0,0,0,0,1,0,0,0,0,0,0,375,
scooby_state_455101|22|1 375,0,0,0,0,0,0,0,0,0,0,0,0,0,0,375,
scooby_state_4550b6|4|1 375,0,0,0,0,0,0,0,0,0,0,0,0,0,0,375,
scooby_state_455101|27|1 375,0,0,0,0,0,0,0,0,0,0,0,0,0,0,375,
scooby_state_455101|9|1 375,0,0,0,0,0,0,0,0,0,0,0,0,0,0,375,
scooby_state_4550a8|27|1 374,0,0,0,0,0,0,0,1,0,0,0,0,0,0,375,
scooby_state_4550bc|27|1 374,0,0,0,0,0,1,0,0,0,0,0,0,0,0,375,
scooby_state_4550bc|18|1 374,0,0,0,0,0,1,0,0,0,0,0,0,0,0,375,
scooby_state_4550a8|24|1 374,0,0,0,0,0,0,0,0,0,0,0,0,1,0,375,
scooby_state_4550b6|28|1 374,0,0,0,0,0,0,0,0,1,0,0,0,0,0,375,
scooby_state_4550bc|24|1 375,0,0,0,0,0,0,0,0,0,0,0,0,0,0,375,
scooby_state_4550a8|11|1 375,0,0,0,0,0,0,0,0,0,0,0,0,0,0,375,
scooby_state_45503a|12|0 1,1,1,2,1,369,0,0,0,0,0,0,0,0,0,375,
scooby_state_4550a8|26|1 375,0,0,0,0,0,0,0,0,0,0,0,0,0,0,375,
scooby_state_455032|15|0 137,7,7,17,10,23,7,16,10,8,16,16,8,26,67,375,
scooby_state_4550a8|20|1 374,0,0,0,0,0,0,0,1,0,0,0,0,0,0,375,
scooby_state_4550a8|10|1 374,0,0,0,0,0,0,1,0,0,0,0,0,0,0,375,
scooby_state_455101|26|1 374,0,0,1,0,0,0,0,0,0,0,0,0,0,0,375,
scooby_state_4550ca|21|1 375,0,0,0,0,0,0,0,0,0,0,0,0,0,0,375,
scooby_state_4550ca|36|1 375,0,0,0,0,0,0,0,0,0,0,0,0,0,0,375,
scooby_state_4550a8|17|1 374,0,0,0,0,0,0,0,0,1,0,0,0,0,0,375,
scooby_state_455101|25|1 374,0,0,0,1,0,0,0,0,0,0,0,0,0,0,375,
scooby_state_4550a8|23|1 374,0,0,0,0,1,0,0,0,0,0,0,0,0,0,375,
scooby_state_4550bc|11|1 375,0,0,0,0,0,0,0,0,0,0,0,0,0,0,375,
scooby_state_4550ca|23|1 374,0,0,0,0,0,0,1,0,0,0,0,0,0,0,375,
scooby_state_4550a8|9|1 373,0,0,0,1,0,0,0,0,0,0,1,0,0,0,375,
scooby_state_4550bc|9|1 374,0,0,0,0,0,1,0,0,0,0,0,0,0,0,375,
scooby_state_455101|23|1 375,0,0,0,0,0,0,0,0,0,0,0,0,0,0,375,
scooby_state_4550b6|11|1 375,0,0,0,0,0,0,0,0,0,0,0,0,0,0,375,
scooby_state_4550a8|21|1 374,0,0,0,0,0,0,0,0,0,0,0,0,0,1,375,
scooby_state_4550bc|16|1 375,0,0,0,0,0,0,0,0,0,0,0,0,0,0,375,
scooby_state_4550b6|30|1 375,0,0,0,0,0,0,0,0,0,0,0,0,0,0,375,
scooby_state_455101|15|1 373,0,0,1,0,0,0,0,0,0,0,0,0,0,1,375,
scooby_state_4550ca|19|1 375,0,0,0,0,0,0,0,0,0,0,0,0,0,0,375,
scooby_state_455101|18|1 374,0,0,0,0,0,0,0,0,0,0,0,1,0,0,375,
scooby_state_4550bc|10|1 373,0,0,0,0,0,0,0,1,0,0,1,0,0,0,375,
scooby_state_4550bc|15|1 375,0,0,0,0,0,0,0,0,0,0,0,0,0,0,375,
scooby_state_455101|14|1 375,0,0,0,0,0,0,0,0,0,0,0,0,0,0,375,
scooby_state_4550a8|22|1 375,0,0,0,0,0,0,0,0,0,0,0,0,0,0,375,
scooby_state_4550b6|21|1 375,0,0,0,0,0,0,0,0,0,0,0,0,0,0,375,
scooby_state_455101|24|1 373,0,0,0,0,0,1,0,0,0,0,0,0,1,0,375,
scooby_state_4550a8|14|1 375,0,0,0,0,0,0,0,0,0,0,0,0,0,0,375,
scooby_state_4550ca|54|1 375,0,0,0,0,0,0,0,0,0,0,0,0,0,0,375,
scooby_state_4550bc|22|1 375,0,0,0,0,0,0,0,0,0,0,0,0,0,0,375,
scooby_state_4550bc|13|1 374,0,0,0,0,0,0,0,0,0,0,1,0,0,0,375,
scooby_state_4550ca|4|1 375,0,0,0,0,0,0,0,0,0,0,0,0,0,0,375,
scooby_state_4550bc|23|1 375,0,0,0,0,0,0,0,0,0,0,0,0,0,0,375,
scooby_state_4550ca|18|1 373,1,0,0,0,0,0,0,0,0,0,0,0,1,0,375,
scooby_state_4550a8|12|1 374,0,0,0,0,0,0,1,0,0,0,0,0,0,0,375,
scooby_state_4550b6|25|1 375,0,0,0,0,0,0,0,0,0,0,0,0,0,0,375,
scooby_state_4550a8|16|1 375,0,0,0,0,0,0,0,0,0,0,0,0,0,0,375,
scooby_state_455101|12|1 374,0,0,0,1,0,0,0,0,0,0,0,0,0,0,375,
scooby_state_4550b6|16|1 373,0,0,0,0,0,0,0,0,0,0,0,0,0,1,374,
scooby_state_4550ca|32|1 373,0,0,0,0,0,0,0,0,0,0,0,0,0,1,374,
scooby_state_4550ca|48|1 374,0,0,0,0,0,0,0,0,0,0,0,0,0,0,374,
scooby_state_4550b6|13|1 373,0,0,0,0,0,0,0,0,0,0,1,0,0,0,374,
scooby_state_4550b6|18|1 374,0,0,0,0,0,0,0,0,0,0,0,0,0,0,374,
scooby_state_4550ca|29|1 373,0,0,0,0,0,0,0,0,0,0,0,0,1,0,374,
scooby_state_4550ca|25|1 374,0,0,0,0,0,0,0,0,0,0,0,0,0,0,374,
scooby_state_4550ca|53|1 374,0,0,0,0,0,0,0,0,0,0,0,0,0,0,374,
scooby_state_4550b6|6|1 374,0,0,0,0,0,0,0,0,0,0,0,0,0,0,374,
scooby_state_4550ca|15|1 374,0,0,0,0,0,0,0,0,0,0,0,0,0,0,374,
scooby_state_4550ca|49|1 374,0,0,0,0,0,0,0,0,0,0,0,0,0,0,374,
scooby_state_4550b6|14|1 374,0,0,0,0,0,0,0,0,0,0,0,0,0,0,374,
scooby_state_4550b6|17|1 374,0,0,0,0,0,0,0,0,0,0,0,0,0,0,374,
scooby_state_4550b6|10|1 373,0,0,0,0,1,0,0,0,0,0,0,0,0,0,374,
scooby_state_4550b6|15|1 373,1,0,0,0,0,0,0,0,0,0,0,0,0,0,374,
scooby_state_4550b6|27|1 374,0,0,0,0,0,0,0,0,0,0,0,0,0,0,374,
scooby_state_4550ca|14|1 374,0,0,0,0,0,0,0,0,0,0,0,0,0,0,374,
scooby_state_4550ca|16|1 372,0,0,0,0,0,0,0,1,0,0,0,0,1,0,374,
scooby_state_455165|51|0 374,0,0,0,0,0,0,0,0,0,0,0,0,0,0,374,
scooby_state_4550ca|30|1 373,0,0,0,0,0,0,0,0,0,0,0,0,0,0,373,
scooby_state_4550ca|31|1 371,0,0,0,0,0,0,0,0,0,0,1,1,0,0,373,
scooby_state_4550ca|28|1 372,0,0,0,0,0,0,1,0,0,0,0,0,0,0,373,
scooby_state_4550b6|26|1 373,0,0,0,0,0,0,0,0,0,0,0,0,0,0,373,
scooby_state_4550ca|8|1 373,0,0,0,0,0,0,0,0,0,0,0,0,0,0,373,
scooby_state_4550ca|52|1 373,0,0,0,0,0,0,0,0,0,0,0,0,0,0,373,
scooby_state_4550b6|8|1 372,0,1,0,0,0,0,0,0,0,0,0,0,0,0,373,
scooby_state_4550b6|9|1 373,0,0,0,0,0,0,0,0,0,0,0,0,0,0,373,
scooby_state_4550b6|5|1 373,0,0,0,0,0,0,0,0,0,0,0,0,0,0,373,
scooby_state_4550ca|51|1 373,0,0,0,0,0,0,0,0,0,0,0,0,0,0,373,
scooby_state_4550ca|5|1 373,0,0,0,0,0,0,0,0,0,0,0,0,0,0,373,
scooby_state_4550ca|34|1 373,0,0,0,0,0,0,0,0,0,0,0,0,0,0,373,
scooby_state_4550ca|33|1 373,0,0,0,0,0,0,0,0,0,0,0,0,0,0,373,
scooby_state_4550ca|7|1 373,0,0,0,0,0,0,0,0,0,0,0,0,0,0,373,
scooby_state_4550ca|26|1 372,0,0,0,0,0,0,0,0,0,0,0,0,0,0,372,
scooby_state_4550ca|6|1 372,0,0,0,0,0,0,0,0,0,0,0,0,0,0,372,
scooby_state_4550ca|13|1 372,0,0,0,0,0,0,0,0,0,0,0,0,0,0,372,
scooby_state_4550ca|10|1 371,0,0,0,0,0,1,0,0,0,0,0,0,0,0,372,
scooby_state_4550ca|11|1 372,0,0,0,0,0,0,0,0,0,0,0,0,0,0,372,
scooby_state_4550ca|27|1 371,0,0,0,0,0,0,0,1,0,0,0,0,0,0,372,
scooby_state_4550ca|12|1 371,0,0,0,0,0,0,0,0,0,0,0,0,0,0,371,
scooby_state_4550ca|9|1 371,0,0,0,0,0,0,0,0,0,0,0,0,0,0,371,
scooby_state_454c8f|0|0 323,1,0,0,0,0,0,0,0,0,0,0,0,0,0,324,
scooby_state_454c70|0|0 324,0,0,0,0,0,0,0,0,0,0,0,0,0,0,324,
scooby_state_454cd0|0|0 323,0,0,0,0,0,0,0,0,0,0,0,0,0,1,324,
scooby_state_454ce5|44|1 323,0,0,0,0,0,0,0,0,0,0,0,0,0,0,323,
scooby_state_454cc4|57|1 322,0,0,0,0,0,1,0,0,0,0,0,0,0,0,323,
scooby_state_454caa|0|0 323,0,0,0,0,0,0,0,0,0,0,0,0,0,0,323,
scooby_state_454cc4|62|1 322,0,0,0,0,0,0,0,0,0,0,0,0,0,1,323,
scooby_state_454cc4|3|1 323,0,0,0,0,0,0,0,0,0,0,0,0,0,0,323,
scooby_state_454caa|57|1 323,0,0,0,0,0,0,0,0,0,0,0,0,0,0,323,
scooby_state_454cc4|18|1 323,0,0,0,0,0,0,0,0,0,0,0,0,0,0,323,
scooby_state_454cc4|15|1 323,0,0,0,0,0,0,0,0,0,0,0,0,0,0,323,
scooby_state_454caa|47|1 322,0,0,0,0,0,1,0,0,0,0,0,0,0,0,323,
scooby_state_454cc4|13|1 322,0,0,0,1,0,0,0,0,0,0,0,0,0,0,323,
scooby_state_454ce5|32|1 323,0,0,0,0,0,0,0,0,0,0,0,0,0,0,323,
scooby_state_454ce5|37|1 323,0,0,0,0,0,0,0,0,0,0,0,0,0,0,323,
scooby_state_454caa|55|1 323,0,0,0,0,0,0,0,0,0,0,0,0,0,0,323,
scooby_state_454caa|56|1 321,1,1,0,0,0,0,0,0,0,0,0,0,0,0,323,
scooby_state_454cc4|63|1 323,0,0,0,0,0,0,0,0,0,0,0,0,0,0,323,
scooby_state_454ce5|40|1 323,0,0,0,0,0,0,0,0,0,0,0,0,0,0,323,
scooby_state_454ce5|42|1 323,0,0,0,0,0,0,0,0,0,0,0,0,0,0,323,
scooby_state_454ce5|29|1 322,0,0,0,0,0,0,0,0,1,0,0,0,0,0,323,
scooby_state_454ce5|31|1 322,0,0,1,0,0,0,0,0,0,0,0,0,0,0,323,
scooby_state_454cc4|5|1 323,0,0,0,0,0,0,0,0,0,0,0,0,0,0,323,
scooby_state_454cc4|60|1 323,0,0,0,0,0,0,0,0,0,0,0,0,0,0,323,
scooby_state_454ce5|28|1 322,0,0,0,0,0,1,0,0,0,0,0,0,0,0,323,
scooby_state_454ce5|25|1 323,0,0,0,0,0,0,0,0,0,0,0,0,0,0,323,
scooby_state_454ce5|34|1 323,0,0,0,0,0,0,0,0,0,0,0,0,0,0,323,
scooby_state_454caa|3|1 323,0,0,0,0,0,0,0,0,0,0,0,0,0,0,323,
scooby_state_454ce5|30|1 321,1,0,1,0,0,0,0,0,0,0,0,0,0,0,323,
scooby_state_454caa|60|1 323,0,0,0,0,0,0,0,0,0,0,0,0,0,0,323,
scooby_state_454cc4|7|1 320,0,1,0,0,0,1,1,0,0,0,0,0,0,0,323,
scooby_state_454cc4|6|1 323,0,0,0,0,0,0,0,0,0,0,0,0,0,0,323,
scooby_state_454cc4|56|1 323,0,0,0,0,0,0,0,0,0,0,0,0,0,0,323,
scooby_state_454caa|49|1 322,0,0,0,1,0,0,0,0,0,0,0,0,0,0,323,
scooby_state_454caa|59|1 323,0,0,0,0,0,0,0,0,0,0,0,0,0,0,323,
scooby_state_454caa|10|1 323,0,0,0,0,0,0,0,0,0,0,0,0,0,0,323,
scooby_state_454caa|8|1 322,0,0,0,0,0,0,0,0,0,0,1,0,0,0,323,
scooby_state_454ce5|49|1 323,0,0,0,0,0,0,0,0,0,0,0,0,0,0,323,
scooby_state_454ce5|46|1 321,0,0,1,0,0,0,0,0,1,0,0,0,0,0,323,
scooby_state_454ce5|48|1 322,0,0,0,0,0,0,1,0,0,0,0,0,0,0,323,
scooby_state_454cc4|4|1 323,0,0,0,0,0,0,0,0,0,0,0,0,0,0,323,
scooby_state_454cc4|58|1 323,0,0,0,0,0,0,0,0,0,0,0,0,0,0,323,
scooby_state_454cc4|10|1 322,0,0,0,0,0,0,0,0,0,1,0,0,0,0,323,
scooby_state_454cc4|2|1 323,0,0,0,0,0,0,0,0,0,0,0,0,0,0,323,
scooby_state_454cc4|16|1 321,0,0,0,0,0,0,1,0,0,0,1,0,0,0,323,
scooby_state_454ce5|24|1 322,0,0,0,0,0,0,0,1,0,0,0,0,0,0,323,
scooby_state_454caa|52|1 323,0,0,0,0,0,0,0,0,0,0,0,0,0,0,323,
scooby_state_454ce5|35|1 323,0,0,0,0,0,0,0,0,0,0,0,0,0,0,323,
scooby_state_454cc4|14|1 323,0,0,0,0,0,0,0,0,0,0,0,0,0,0,323,
scooby_state_454caa|9|1 323,0,0,0,0,0,0,0,0,0,0,0,0,0,0,323,
scooby_state_454caa|7|1 322,0,0,0,0,0,0,0,0,1,0,0,0,0,0,323,
scooby_state_454cc4|0|0 323,0,0,0,0,0,0,0,0,0,0,0,0,0,0,323,
scooby_state_454caa|53|1 322,0,0,0,1,0,0,0,0,0,0,0,0,0,0,323,
scooby_state_454ce5|26|1 322,1,0,0,0,0,0,0,0,0,0,0,0,0,0,323,
scooby_state_454cc4|1|1 322,0,0,0,0,0,0,0,0,0,0,1,0,0,0,323,
scooby_state_454caa|63|1 322,0,0,0,0,0,0,0,0,0,0,0,1,0,0,323,
scooby_state_454ce5|43|1 321,0,0,0,1,0,0,0,0,0,1,0,0,0,0,323,
scooby_state_454cc4|8|1 323,0,0,0,0,0,0,0,0,0,0,0,0,0,0,323,
scooby_state_454cc4|11|1 323,0,0,0,0,0,0,0,0,0,0,0,0,0,0,323,
scooby_state_454cc4|61|1 323,0,0,0,0,0,0,0,0,0,0,0,0,0,0,323,
scooby_state_454caa|48|1 323,0,0,0,0,0,0,0,0,0,0,0,0,0,0,323,
scooby_state_454cc4|55|1 323,0,0,0,0,0,0,0,0,0,0,0,0,0,0,323,
scooby_state_454cc4|9|1 323,0,0,0,0,0,0,0,0,0,0,0,0,0,0,323,
scooby_state_454ce5|33|1 323,0,0,0,0,0,0,0,0,0,0,0,0,0,0,323,
scooby_state_454ce5|50|1 322,0,1,0,0,0,0,0,0,0,0,0,0,0,0,323,
scooby_state_454cc4|12|1 320,0,0,1,0,0,0,0,1,0,0,1,0,0,0,323,
scooby_state_454ce5|47|1 323,0,0,0,0,0,0,0,0,0,0,0,0,0,0,323,
scooby_state_454ce5|36|1 323,0,0,0,0,0,0,0,0,0,0,0,0,0,0,323,
scooby_state_454ce5|51|1 323,0,0,0,0,0,0,0,0,0,0,0,0,0,0,323,
scooby_state_454caa|62|1 323,0,0,0,0,0,0,0,0,0,0,0,0,0,0,323,
scooby_state_454caa|2|1 321,0,0,0,0,0,0,0,0,0,1,0,0,1,0,323,
scooby_state_454ce5|39|1 322,0,0,0,0,1,0,0,0,0,0,0,0,0,0,323,
scooby_state_454caa|61|1 323,0,0,0,0,0,0,0,0,0,0,0,0,0,0,323,
scooby_state_454caa|54|1 323,0,0,0,0,0,0,0,0,0,0,0,0,0,0,323,
scooby_state_454ce5|45|1 323,0,0,0,0,0,0,0,0,0,0,0,0,0,0,323,
scooby_state_454ce5|41|1 323,0,0,0,0,0,0,0,0,0,0,0,0,0,0,323,
scooby_state_454caa|51|1 321,1,0,0,1,0,0,0,0,0,0,0,0,0,0,323,
scooby_state_454caa|5|1 321,0,0,0,0,1,0,0,0,0,0,1,0,0,0,323,
scooby_state_454caa|6|1 321,0,0,0,0,1,0,0,0,0,0,0,1,0,0,323,
scooby_state_454caa|50|1 323,0,0,0,0,0,0,0,0,0,0,0,0,0,0,323,
scooby_state_454ce5|38|1 323,0,0,0,0,0,0,0,0,0,0,0,0,0,0,323,
scooby_state_454cc4|17|1 322,0,0,0,0,0,0,0,0,0,0,1,0,0,0,323,
scooby_state_454caa|4|1 322,0,0,0,1,0,0,0,0,0,0,0,0,0,0,323,
scooby_state_454ce5|27|1 323,0,0,0,0,0,0,0,0,0,0,0,0,0,0,323,
scooby_state_454cc4|59|1 323,0,0,0,0,0,0,0,0,0,0,0,0,0,0,323,
scooby_state_454caa|58|1 322,0,0,0,0,0,0,0,0,1,0,0,0,0,0,323,
scooby_state_454caa|1|1 321,0,0,2,0,0,0,0,0,0,0,0,0,0,0,323,
scooby_state_454cc4|39|1 322,0,0,0,0,0,0,0,0,0,0,0,0,0,0,322,
scooby_state_454cc4|43|1 322,0,0,0,0,0,0,0,0,0,0,0,0,0,0,322,
scooby_state_454ce5|58|1 322,0,0,0,0,0,0,0,0,0,0,0,0,0,0,322,
scooby_state_454caa|11|1 320,0,0,0,0,0,0,0,0,1,0,0,0,1,0,322,
scooby_state_454cc4|42|1 322,0,0,0,0,0,0,0,0,0,0,0,0,0,0,322,
scooby_state_454ce5|19|1 320,0,0,0,1,0,0,1,0,0,0,0,0,0,0,322,
scooby_state_454ce5|62|1 321,0,0,0,1,0,0,0,0,0,0,0,0,0,0,322,
scooby_state_454ce5|14|1 321,0,0,0,0,0,0,0,1,0,0,0,0,0,0,322,
scooby_state_454caa|37|1 320,0,0,1,1,0,0,0,0,0,0,0,0,0,0,322,
scooby_state_454cc4|47|1 322,0,0,0,0,0,0,0,0,0,0,0,0,0,0,322,
scooby_state_454cc4|41|1 322,0,0,0,0,0,0,0,0,0,0,0,0,0,0,322,
scooby_state_454ce5|63|1 322,0,0,0,0,0,0,0,0,0,0,0,0,0,0,322,
scooby_state_454caa|22|1 322,0,0,0,0,0,0,0,0,0,0,0,0,0,0,322,
scooby_state_454cc4|45|1 321,0,0,0,1,0,0,0,0,0,0,0,0,0,0,322,
scooby_state_454cc4|34|1 322,0,0,0,0,0,0,0,0,0,0,0,0,0,0,322,
scooby_state_454cc4|53|1 321,0,0,0,0,0,0,0,1,0,0,0,0,0,0,322,
scooby_state_454caa|38|1 322,0,0,0,0,0,0,0,0,0,0,0,0,0,0,322,
scooby_state_454cc4|32|1 320,0,0,0,1,0,1,0,0,0,0,0,0,0,0,322,
scooby_state_454ce5|60|1 322,0,0,0,0,0,0,0,0,0,0,0,0,0,0,322,
scooby_state_454cc4|33|1 321,0,1,0,0,0,0,0,0,0,0,0,0,0,0,322,
scooby_state_454caa|12|1 322,0,0,0,0,0,0,0,0,0,0,0,0,0,0,322,
scooby_state_454cc4|31|1 321,0,0,0,0,1,0,0,0,0,0,0,0,0,0,322,
scooby_state_454ce5|52|1 322,0,0,0,0,0,0,0,0,0,0,0,0,0,0,322,
scooby_state_454ce5|3|1 322,0,0,0,0,0,0,0,0,0,0,0,0,0,0,322,
scooby_state_454ce5|7|1 321,0,0,0,0,0,1,0,0,0,0,0,0,0,0,322,
scooby_state_454caa|20|1 321,0,0,0,1,0,0,0,0,0,0,0,0,0,0,322,
scooby_state_454ce5|22|1 321,0,0,0,0,0,0,0,0,0,0,1,0,0,0,322,
scooby_state_454cc4|36|1 322,0,0,0,0,0,0,0,0,0,0,0,0,0,0,322,
scooby_state_454caa|31|1 322,0,0,0,0,0,0,0,0,0,0,0,0,0,0,322,
scooby_state_454ce5|10|1 322,0,0,0,0,0,0,0,0,0,0,0,0,0,0,322,
scooby_state_454caa|27|1 322,0,0,0,0,0,0,0,0,0,0,0,0,0,0,322,
scooby_state_454ce5|11|1 322,0,0,0,0,0,0,0,0,0,0,0,0,0,0,322,
scooby_state_454ce5|0|0 322,0,0,0,0,0,0,0,0,0,0,0,0,0,0,322,
scooby_state_454caa|29|1 322,0,0,0,0,0,0,0,0,0,0,0,0,0,0,322,
scooby_state_454cc4|30|1 321,0,0,0,0,1,0,0,0,0,0,0,0,0,0,322,
scooby_state_454caa|33|1 320,0,0,0,0,0,0,0,0,1,1,0,0,0,0,322,
scooby_state_454cc4|27|1 321,1,0,0,0,0,0,0,0,0,0,0,0,0,0,322,
scooby_state_454caa|23|1 322,0,0,0,0,0,0,0,0,0,0,0,0,0,0,322,
scooby_state_454caa|14|1 322,0,0,0,0,0,0,0,0,0,0,0,0,0,0,322,
scooby_state_454caa|35|1 322,0,0,0,0,0,0,0,0,0,0,0,0,0,0,322,
scooby_state_454ce5|6|1 322,0,0,0,0,0,0,0,0,0,0,0,0,0,0,322,
scooby_state_454cc4|44|1 322,0,0,0,0,0,0,0,0,0,0,0,0,0,0,322,
scooby_state_454caa|19|1 321,1,0,0,0,0,0,0,0,0,0,0,0,0,0,322,
scooby_state_454ce5|23|1 322,0,0,0,0,0,0,0,0,0,0,0,0,0,0,322,
scooby_state_454ce5|13|1 322,0,0,0,0,0,0,0,0,0,0,0,0,0,0,322,
scooby_state_454ce5|17|1 321,0,0,0,0,0,0,0,0,0,0,0,0,0,1,322,
scooby_state_454ce5|5|1 321,0,0,1,0,0,0,0,0,0,0,0,0,0,0,322,
scooby_state_454cc4|24|1 322,0,0,0,0,0,0,0,0,0,0,0,0,0,0,322,
scooby_state_454ce5|57|1 322,0,0,0,0,0,0,0,0,0,0,0,0,0,0,322,
scooby_state_454caa|45|1 322,0,0,0,0,0,0,0,0,0,0,0,0,0,0,322,
scooby_state_454cc4|40|1 322,0,0,0,0,0,0,0,0,0,0,0,0,0,0,322,
scooby_state_454ce5|53|1 320,0,0,0,0,1,0,0,0,0,0,1,0,0,0,322,
scooby_state_454ce5|61|1 322,0,0,0,0,0,0,0,0,0,0,0,0,0,0,322,
scooby_state_454ce5|16|1 321,0,0,0,0,0,0,0,0,0,0,0,0,1,0,322,
scooby_state_454caa|21|1 322,0,0,0,0,0,0,0,0,0,0,0,0,0,0,322,
scooby_state_454caa|39|1 322,0,0,0,0,0,0,0,0,0,0,0,0,0,0,322,
scooby_state_454ce5|8|1 322,0,0,0,0,0,0,0,0,0,0,0,0,0,0,322,
scooby_state_454caa|24|1 322,0,0,0,0,0,0,0,0,0,0,0,0,0,0,322,
scooby_state_454cc4|19|1 322,0,0,0,0,0,0,0,0,0,0,0,0,0,0,322,
scooby_state_454ce5|18|1 322,0,0,0,0,0,0,0,0,0,0,0,0,0,0,322,
scooby_state_454cc4|23|1 321,0,0,0,0,0,0,0,0,0,0,0,1,0,0,322,
scooby_state_454cc4|50|1 321,1,0,0,0,0,0,0,0,0,0,0,0,0,0,322,
scooby_state_454caa|30|1 320,0,0,0,0,0,0,1,0,0,1,0,0,0,0,322,
scooby_state_454cc4|46|1 321,0,0,0,0,0,0,0,0,0,0,0,0,0,1,322,
scooby_state_454ce5|15|1 321,0,0,0,0,0,0,0,0,0,1,0,0,0,0,322,
scooby_state_454ce5|56|1 320,1,0,0,0,0,0,0,0,0,0,0,0,0,1,322,
scooby_state_454ce5|12|1 322,0,0,0,0,0,0,0,0,0,0,0,0,0,0,322,
scooby_state_454cc4|48|1 321,0,0,0,0,0,0,0,0,0,0,0,1,0,0,322,
scooby_state_454caa|41|1 322,0,0,0,0,0,0,0,0,0,0,0,0,0,0,322,
scooby_state_454caa|18|1 322,0,0,0,0,0,0,0,0,0,0,0,0,0,0,322,
scooby_state_454cc4|54|1 322,0,0,0,0,0,0,0,0,0,0,0,0,0,0,322,
scooby_state_454ce5|20|1 320,0,0,1,0,0,1,0,0,0,0,0,0,0,0,322,
scooby_state_454caa|36|1 322,0,0,0,0,0,0,0,0,0,0,0,0,0,0,322,
scooby_state_454caa|43|1 321,0,0,0,0,0,1,0,0,0,0,0,0,0,0,322,
scooby_state_454ce5|54|1 321,1,0,0,0,0,0,0,0,0,0,0,0,0,0,322,
scooby_state_454caa|32|1 321,0,0,1,0,0,0,0,0,0,0,0,0,0,0,322,
scooby_state_454cc4|52|1 322,0,0,0,0,0,0,0,0,0,0,0,0,0,0,322,
scooby_state_454ce5|21|1 321,0,0,0,0,0,0,1,0,0,0,0,0,0,0,322,
scooby_state_454caa|25|1 322,0,0,0,0,0,0,0,0,0,0,0,0,0,0,322,
scooby_state_454ce5|55|1 322,0,0,0,0,0,0,0,0,0,0,0,0,0,0,322,
scooby_state_454cc4|35|1 321,0,0,0,0,0,0,0,1,0,0,0,0,0,0,322,
scooby_state_454cc4|38|1 322,0,0,0,0,0,0,0,0,0,0,0,0,0,0,322,
scooby_state_454caa|42|1 322,0,0,0,0,0,0,0,0,0,0,0,0,0,0,322,
scooby_state_454caa|40|1 322,0,0,0,0,0,0,0,0,0,0,0,0,0,0,322,
scooby_state_454cc4|51|1 322,0,0,0,0,0,0,0,0,0,0,0,0,0,0,322,
scooby_state_454cc4|49|1 321,0,0,0,0,0,0,1,0,0,0,0,0,0,0,322,
scooby_state_454cc4|29|1 322,0,0,0,0,0,0,0,0,0,0,0,0,0,0,322,
scooby_state_454ce5|2|1 322,0,0,0,0,0,0,0,0,0,0,0,0,0,0,322,
scooby_state_454cc4|20|1 321,0,0,0,1,0,0,0,0,0,0,0,0,0,0,322,
scooby_state_454cc4|21|1 321,0,0,0,0,1,0,0,0,0,0,0,0,0,0,322,
scooby_state_454cc4|37|1 321,0,0,0,0,0,0,0,0,1,0,0,0,0,0,322,
scooby_state_454caa|17|1 321,0,1,0,0,0,0,0,0,0,0,0,0,0,0,322,
scooby_state_454cc4|25|1 321,1,0,0,0,0,0,0,0,0,0,0,0,0,0,322,
scooby_state_454ce5|4|1 321,0,0,0,0,0,0,0,0,0,0,1,0,0,0,322,
scooby_state_454cc4|28|1 321,0,0,0,0,0,0,0,0,1,0,0,0,0,0,322,
scooby_state_454caa|13|1 322,0,0,0,0,0,0,0,0,0,0,0,0,0,0,322,
scooby_state_454caa|15|1 322,0,0,0,0,0,0,0,0,0,0,0,0,0,0,322,
scooby_state_454caa|16|1 320,0,0,0,0,0,0,0,0,2,0,0,0,0,0,322,
scooby_state_454caa|44|1 321,0,0,0,0,0,0,0,0,0,0,0,1,0,0,322,
scooby_state_454caa|28|1 319,0,0,0,1,1,0,1,0,0,0,0,0,0,0,322,
scooby_state_454caa|46|1 322,0,0,0,0,0,0,0,0,0,0,0,0,0,0,322,
scooby_state_454caa|26|1 319,0,0,0,0,1,2,0,0,0,0,0,0,0,0,322,
scooby_state_454cc4|22|1 322,0,0,0,0,0,0,0,0,0,0,0,0,0,0,322,
scooby_state_454caa|34|1 322,0,0,0,0,0,0,0,0,0,0,0,0,0,0,322,
scooby_state_454ce5|59|1 322,0,0,0,0,0,0,0,0,0,0,0,0,0,0,322,
scooby_state_454ce5|1|1 322,0,0,0,0,0,0,0,0,0,0,0,0,0,0,322,
scooby_state_454cc4|26|1 321,0,0,0,0,0,0,1,0,0,0,0,0,0,0,322,
scooby_state_454ce5|9|1 322,0,0,0,0,0,0,0,0,0,0,0,0,0,0,322,
scooby_state_454cd0|61|1 319,0,0,0,0,0,0,0,0,0,0,0,0,0,0,319,
scooby_state_454c8f|17|1 316,0,0,0,0,0,0,0,1,0,0,0,1,1,0,319,
scooby_state_454c8f|56|1 319,0,0,0,0,0,0,0,0,0,0,0,0,0,0,319,
scooby_state_454cd0|42|1 319,0,0,0,0,0,0,0,0,0,0,0,0,0,0,319,
scooby_state_454c8f|53|1 319,0,0,0,0,0,0,0,0,0,0,0,0,0,0,319,
scooby_state_454cd0|3|1 319,0,0,0,0,0,0,0,0,0,0,0,0,0,0,319,
scooby_state_454c70|59|1 319,0,0,0,0,0,0,0,0,0,0,0,0,0,0,319,
scooby_state_454c70|4|1 318,0,0,0,0,0,0,0,0,0,1,0,0,0,0,319,
scooby_state_454cd0|51|1 319,0,0,0,0,0,0,0,0,0,0,0,0,0,0,319,
scooby_state_454c8f|10|1 319,0,0,0,0,0,0,0,0,0,0,0,0,0,0,319,
scooby_state_454c8f|61|1 318,0,0,0,0,0,0,1,0,0,0,0,0,0,0,319,
scooby_state_454c70|18|1 319,0,0,0,0,0,0,0,0,0,0,0,0,0,0,319,
scooby_state_454c70|17|1 319,0,0,0,0,0,0,0,0,0,0,0,0,0,0,319,
scooby_state_454c8f|47|1 319,0,0,0,0,0,0,0,0,0,0,0,0,0,0,319,
scooby_state_454c70|49|1 319,0,0,0,0,0,0,0,0,0,0,0,0,0,0,319,
scooby_state_454cd0|49|1 319,0,0,0,0,0,0,0,0,0,0,0,0,0,0,319,
scooby_state_454c8f|60|1 319,0,0,0,0,0,0,0,0,0,0,0,0,0,0,319,
scooby_state_454cd0|53|1 319,0,0,0,0,0,0,0,0,0,0,0,0,0,0,319,
scooby_state_454c8f|8|1 317,0,1,1,0,0,0,0,0,0,0,0,0,0,0,319,
scooby_state_454c70|45|1 319,0,0,0,0,0,0,0,0,0,0,0,0,0,0,319,
scooby_state_454c70|10|1 317,0,0,0,0,0,0,0,0,0,1,0,0,0,1,319,
scooby_state_454c8f|59|1 318,0,0,0,0,0,0,0,0,0,0,0,0,1,0,319,
scooby_state_454c70|48|1 319,0,0,0,0,0,0,0,0,0,0,0,0,0,0,319,
scooby_state_454c70|16|1 319,0,0,0,0,0,0,0,0,0,0,0,0,0,0,319,
scooby_state_454cd0|45|1 318,0,1,0,0,0,0,0,0,0,0,0,0,0,0,319,
scooby_state_454cd0|5|1 318,0,0,0,0,0,0,0,0,0,1,0,0,0,0,319,
scooby_state_454c8f|62|1 319,0,0,0,0,0,0,0,0,0,0,0,0,0,0,319,
scooby_state_454cd0|55|1 317,0,0,0,1,1,0,0,0,0,0,0,0,0,0,319,
scooby_state_454c70|7|1 319,0,0,0,0,0,0,0,0,0,0,0,0,0,0,319,
scooby_state_454c8f|44|1 319,0,0,0,0,0,0,0,0,0,0,0,0,0,0,319,
scooby_state_454c70|57|1 318,0,0,0,0,0,0,0,1,0,0,0,0,0,0,319,
scooby_state_454c8f|55|1 317,0,0,0,0,0,0,0,0,0,0,1,0,1,0,319,
scooby_state_454cd0|2|1 317,0,0,0,0,0,0,0,0,0,0,0,0,1,1,319,
scooby_state_454c70|40|1 319,0,0,0,0,0,0,0,0,0,0,0,0,0,0,319,
scooby_state_454c70|9|1 318,0,0,0,0,0,0,1,0,0,0,0,0,0,0,319,
scooby_state_454c8f|46|1 319,0,0,0,0,0,0,0,0,0,0,0,0,0,0,319,
scooby_state_454c70|54|1 318,0,0,0,0,1,0,0,0,0,0,0,0,0,0,319,
scooby_state_454c8f|15|1 316,1,1,0,0,0,0,0,0,0,0,0,0,1,0,319,
scooby_state_454cd0|57|1 317,1,0,0,0,0,0,0,0,0,0,0,1,0,0,319,
scooby_state_454cd0|14|1 319,0,0,0,0,0,0,0,0,0,0,0,0,0,0,319,
scooby_state_454c70|6|1 318,0,0,0,0,0,0,0,0,0,0,0,1,0,0,319,
scooby_state_454c8f|63|1 318,0,0,0,0,0,0,0,0,0,1,0,0,0,0,319,
scooby_state_454c8f|9|1 319,0,0,0,0,0,0,0,0,0,0,0,0,0,0,319,
scooby_state_454c8f|4|1 319,0,0,0,0,0,0,0,0,0,0,0,0,0,0,319,
scooby_state_454cd0|44|1 319,0,0,0,0,0,0,0,0,0,0,0,0,0,0,319,
scooby_state_454c8f|54|1 319,0,0,0,0,0,0,0,0,0,0,0,0,0,0,319,
scooby_state_454c70|58|1 319,0,0,0,0,0,0,0,0,0,0,0,0,0,0,319,
scooby_state_454cd0|56|1 318,0,1,0,0,0,0,0,0,0,0,0,0,0,0,319,
scooby_state_454c70|8|1 319,0,0,0,0,0,0,0,0,0,0,0,0,0,0,319,
scooby_state_454c70|56|1 319,0,0,0,0,0,0,0,0,0,0,0,0,0,0,319,
scooby_state_454cd0|52|1 317,0,0,0,1,1,0,0,0,0,0,0,0,0,0,319,
scooby_state_454c70|44|1 318,0,0,0,0,1,0,0,0,0,0,0,0,0,0,319,
scooby_state_454c70|55|1 319,0,0,0,0,0,0,0,0,0,0,0,0,0,0,319,
scooby_state_454c70|53|1 318,0,0,0,0,0,0,0,0,1,0,0,0,0,0,319,
scooby_state_454c8f|14|1 319,0,0,0,0,0,0,0,0,0,0,0,0,0,0,319,
scooby_state_454c70|50|1 319,0,0,0,0,0,0,0,0,0,0,0,0,0,0,319,
scooby_state_454cd0|1|1 319,0,0,0,0,0,0,0,0,0,0,0,0,0,0,319,
scooby_state_454cd0|18|1 318,0,0,0,0,0,0,0,0,0,0,0,0,1,0,319,
scooby_state_454c8f|6|1 318,0,0,0,1,0,0,0,0,0,0,0,0,0,0,319,
scooby_state_454cd0|15|1 319,0,0,0,0,0,0,0,0,0,0,0,0,0,0,319,
scooby_state_454cd0|16|1 317,1,0,1,0,0,0,0,0,0,0,0,0,0,0,319,
scooby_state_454cd0|54|1 318,0,1,0,0,0,0,0,0,0,0,0,0,0,0,319,
scooby_state_454c70|39|1 319,0,0,0,0,0,0,0,0,0,0,0,0,0,0,319,
scooby_state_454c8f|18|1 318,0,1,0,0,0,0,0,0,0,0,0,0,0,0,319,
scooby_state_454c8f|41|1 318,0,0,0,0,0,0,1,0,0,0,0,0,0,0,319,
scooby_state_454c70|14|1 318,0,0,0,0,0,0,0,0,0,0,0,0,0,1,319,
scooby_state_454c70|2|1 318,1,0,0,0,0,0,0,0,0,0,0,0,0,0,319,
scooby_state_454c70|13|1 317,0,0,0,0,0,0,1,0,0,0,0,0,0,1,319,
scooby_state_454c8f|12|1 319,0,0,0,0,0,0,0,0,0,0,0,0,0,0,319,
scooby_state_454cd0|58|1 317,0,0,0,1,0,0,1,0,0,0,0,0,0,0,319,
scooby_state_454c8f|58|1 318,0,0,0,0,0,0,1,0,0,0,0,0,0,0,319,
scooby_state_454cd0|7|1 318,0,0,0,0,0,0,0,1,0,0,0,0,0,0,319,
scooby_state_454c70|52|1 318,0,0,0,1,0,0,0,0,0,0,0,0,0,0,319,
scooby_state_454c70|5|1 318,0,0,0,0,0,0,1,0,0,0,0,0,0,0,319,
scooby_state_454c8f|51|1 319,0,0,0,0,0,0,0,0,0,0,0,0,0,0,319,
scooby_state_454cd0|9|1 319,0,0,0,0,0,0,0,0,0,0,0,0,0,0,319,
scooby_state_454c8f|39|1 319,0,0,0,0,0,0,0,0,0,0,0,0,0,0,319,
scooby_state_454c70|43|1 319,0,0,0,0,0,0,0,0,0,0,0,0,0,0,319,
scooby_state_454cd0|17|1 319,0,0,0,0,0,0,0,0,0,0,0,0,0,0,319,
scooby_state_454c70|1|1 318,0,0,0,0,0,0,0,0,0,0,0,0,0,1,319,
scooby_state_454cd0|12|1 319,0,0,0,0,0,0,0,0,0,0,0,0,0,0,319,
scooby_state_454c8f|38|1 319,0,0,0,0,0,0,0,0,0,0,0,0,0,0,319,
scooby_state_454cd0|13|1 319,0,0,0,0,0,0,0,0,0,0,0,0,0,0,319,
scooby_state_454c8f|7|1 319,0,0,0,0,0,0,0,0,0,0,0,0,0,0,319,
scooby_state_454c8f|52|1 318,0,0,0,0,0,0,1,0,0,0,0,0,0,0,319,
scooby_state_454c8f|48|1 319,0,0,0,0,0,0,0,0,0,0,0,0,0,0,319,
scooby_state_454cd0|11|1 319,0,0,0,0,0,0,0,0,0,0,0,0,0,0,319,
scooby_state_454cd0|41|1 319,0,0,0,0,0,0,0,0,0,0,0,0,0,0,319,
scooby_state_454cd0|40|1 319,0,0,0,0,0,0,0,0,0,0,0,0,0,0,319,
scooby_state_454c8f|40|1 319,0,0,0,0,0,0,0,0,0,0,0,0,0,0,319,
scooby_state_454cd0|62|1 317,0,0,0,1,0,1,0,0,0,0,0,0,0,0,319,
scooby_state_454cd0|63|1 319,0,0,0,0,0,0,0,0,0,0,0,0,0,0,319,
scooby_state_454cd0|8|1 318,0,0,0,0,0,0,0,0,0,0,1,0,0,0,319,
scooby_state_454c8f|42|1 319,0,0,0,0,0,0,0,0,0,0,0,0,0,0,319,
scooby_state_454c70|62|1 319,0,0,0,0,0,0,0,0,0,0,0,0,0,0,319,
scooby_state_454cd0|43|1 316,0,1,0,0,0,0,0,0,0,0,1,0,0,1,319,
scooby_state_454cd0|46|1 317,0,0,0,1,0,0,0,1,0,0,0,0,0,0,319,
scooby_state_454c70|60|1 319,0,0,0,0,0,0,0,0,0,0,0,0,0,0,319,
scooby_state_454c8f|2|1 319,0,0,0,0,0,0,0,0,0,0,0,0,0,0,319,
scooby_state_454c8f|50|1 319,0,0,0,0,0,0,0,0,0,0,0,0,0,0,319,
scooby_state_454c8f|16|1 318,0,0,0,0,0,0,0,0,1,0,0,0,0,0,319,
scooby_state_454c8f|49|1 319,0,0,0,0,0,0,0,0,0,0,0,0,0,0,319,
scooby_state_454c70|47|1 319,0,0,0,0,0,0,0,0,0,0,0,0,0,0,319,
scooby_state_454cd0|59|1 319,0,0,0,0,0,0,0,0,0,0,0,0,0,0,319,
scooby_state_454c8f|1|1 319,0,0,0,0,0,0,0,0,0,0,0,0,0,0,319,
scooby_state_454c70|11|1 317,1,0,0,0,0,0,0,0,0,0,1,0,0,0,319,
scooby_state_454c8f|3|1 319,0,0,0,0,0,0,0,0,0,0,0,0,0,0,319,
scooby_state_454c70|42|1 317,1,0,0,0,0,0,0,1,0,0,0,0,0,0,319,
scooby_state_454c8f|57|1 319,0,0,0,0,0,0,0,0,0,0,0,0,0,0,319,
scooby_state_454cd0|47|1 317,0,0,0,0,1,0,0,0,0,0,0,0,1,0,319,
scooby_state_454cd0|10|1 318,0,0,0,0,0,0,0,0,0,0,0,1,0,0,319,
scooby_state_454c70|41|1 318,0,0,0,0,0,0,0,1,0,0,0,0,0,0,319,
scooby_state_454c8f|45|1 319,0,0,0,0,0,0,0,0,0,0,0,0,0,0,319,
scooby_state_454cd0|39|1 319,0,0,0,0,0,0,0,0,0,0,0,0,0,0,319,
scooby_state_454c70|61|1 318,0,0,0,0,0,0,0,0,1,0,0,0,0,0,319,
scooby_state_454c8f|11|1 319,0,0,0,0,0,0,0,0,0,0,0,0,0,0,319,
scooby_state_454c8f|5|1 319,0,0,0,0,0,0,0,0,0,0,0,0,0,0,319,
scooby_state_454c70|38|1 319,0,0,0,0,0,0,0,0,0,0,0,0,0,0,319,
scooby_state_454cd0|4|1 317,1,0,0,0,0,0,0,1,0,0,0,0,0,0,319,
scooby_state_454c70|51|1 319,0,0,0,0,0,0,0,0,0,0,0,0,0,0,319,
scooby_state_454c70|3|1 318,0,0,0,1,0,0,0,0,0,0,0,0,0,0,319,
scooby_state_454c8f|13|1 316,0,0,0,0,0,2,0,0,0,0,1,0,0,0,319,
scooby_state_454cd0|50|1 319,0,0,0,0,0,0,0,0,0,0,0,0,0,0,319,
scooby_state_454cd0|60|1 318,0,0,0,0,0,0,0,0,0,1,0,0,0,0,319,
scooby_state_454cd0|6|1 318,1,0,0,0,0,0,0,0,0,0,0,0,0,0,319,
scooby_state_454c70|46|1 319,0,0,0,0,0,0,0,0,0,0,0,0,0,0,319,
scooby_state_454cd0|38|1 317,0,0,0,0,0,1,0,0,1,0,0,0,0,0,319,
scooby_state_454c70|12|1 319,0,0,0,0,0,0,0,0,0,0,0,0,0,0,319,
scooby_state_454cd0|48|1 319,0,0,0,0,0,0,0,0,0,0,0,0,0,0,319,
scooby_state_454c70|63|1 319,0,0,0,0,0,0,0,0,0,0,0,0,0,0,319,
scooby_state_454c70|15|1 319,0,0,0,0,0,0,0,0,0,0,0,0,0,0,319,
scooby_state_454c8f|43|1 319,0,0,0,0,0,0,0,0,0,0,0,0,0,0,319,
scooby_state_454c70|21|1 317,0,0,0,0,0,0,0,0,0,0,0,0,0,1,318,
scooby_state_454cd0|21|1 317,0,0,0,0,0,0,0,0,0,0,0,0,0,1,318,
scooby_state_454c8f|23|1 317,0,0,0,0,0,0,0,0,0,0,0,0,0,1,318,
scooby_state_454c8f|20|1 318,0,0,0,0,0,0,0,0,0,0,0,0,0,0,318,
scooby_state_454c70|37|1 318,0,0,0,0,0,0,0,0,0,0,0,0,0,0,318,
scooby_state_454c70|20|1 317,0,0,0,0,0,0,0,0,0,0,0,1,0,0,318,
scooby_state_454c8f|36|1 316,0,0,0,1,0,1,0,0,0,0,0,0,0,0,318,
scooby_state_454cd0|19|1 318,0,0,0,0,0,0,0,0,0,0,0,0,0,0,318,
scooby_state_454c70|24|1 318,0,0,0,0,0,0,0,0,0,0,0,0,0,0,318,
scooby_state_454c70|31|1 318,0,0,0,0,0,0,0,0,0,0,0,0,0,0,318,
scooby_state_454cd0|32|1 318,0,0,0,0,0,0,0,0,0,0,0,0,0,0,318,
scooby_state_454c8f|29|1 318,0,0,0,0,0,0,0,0,0,0,0,0,0,0,318,
scooby_state_454c8f|28|1 317,0,0,0,0,0,0,0,0,1,0,0,0,0,0,318,
scooby_state_454cd0|23|1 318,0,0,0,0,0,0,0,0,0,0,0,0,0,0,318,
scooby_state_454c70|26|1 316,0,0,0,0,0,0,0,0,0,2,0,0,0,0,318,
scooby_state_454c8f|37|1 318,0,0,0,0,0,0,0,0,0,0,0,0,0,0,318,
scooby_state_454c70|25|1 318,0,0,0,0,0,0,0,0,0,0,0,0,0,0,318,
scooby_state_454c70|30|1 318,0,0,0,0,0,0,0,0,0,0,0,0,0,0,318,
scooby_state_454cd0|30|1 317,0,0,0,0,0,0,1,0,0,0,0,0,0,0,318,
scooby_state_454cd0|33|1 318,0,0,0,0,0,0,0,0,0,0,0,0,0,0,318,
scooby_state_454c70|28|1 318,0,0,0,0,0,0,0,0,0,0,0,0,0,0,318,
scooby_state_454cd0|28|1 317,0,0,1,0,0,0,0,0,0,0,0,0,0,0,318,
scooby_state_454cd0|27|1 317,0,0,0,0,1,0,0,0,0,0,0,0,0,0,318,
scooby_state_454c8f|27|1 318,0,0,0,0,0,0,0,0,0,0,0,0,0,0,318,
scooby_state_454c8f|24|1 318,0,0,0,0,0,0,0,0,0,0,0,0,0,0,318,
scooby_state_454c8f|30|1 318,0,0,0,0,0,0,0,0,0,0,0,0,0,0,318,
scooby_state_454c8f|21|1 318,0,0,0,0,0,0,0,0,0,0,0,0,0,0,318,
scooby_state_454c8f|35|1 316,0,0,0,0,1,0,0,0,0,0,1,0,0,0,318,
scooby_state_454cd0|25|1 317,0,1,0,0,0,0,0,0,0,0,0,0,0,0,318,
scooby_state_454c70|32|1 318,0,0,0,0,0,0,0,0,0,0,0,0,0,0,318,
scooby_state_454cd0|20|1 318,0,0,0,0,0,0,0,0,0,0,0,0,0,0,318,
scooby_state_454c70|34|1 316,0,0,0,0,0,0,0,1,1,0,0,0,0,0,318,
scooby_state_454c70|22|1 317,0,0,0,0,0,1,0,0,0,0,0,0,0,0,318,
scooby_state_454c70|36|1 317,0,0,0,0,0,1,0,0,0,0,0,0,0,0,318,
scooby_state_454c8f|22|1 318,0,0,0,0,0,0,0,0,0,0,0,0,0,0,318,
scooby_state_454cd0|31|1 318,0,0,0,0,0,0,0,0,0,0,0,0,0,0,318,
scooby_state_454cd0|36|1 317,0,0,0,0,0,1,0,0,0,0,0,0,0,0,318,
scooby_state_454c8f|31|1 318,0,0,0,0,0,0,0,0,0,0,0,0,0,0,318,
scooby_state_454c70|29|1 318,0,0,0,0,0,0,0,0,0,0,0,0,0,0,318,
scooby_state_454c8f|26|1 318,0,0,0,0,0,0,0,0,0,0,0,0,0,0,318,
scooby_state_454c8f|19|1 318,0,0,0,0,0,0,0,0,0,0,0,0,0,0,318,
scooby_state_454c8f|33|1 316,0,0,0,0,0,0,1,0,0,1,0,0,0,0,318,
scooby_state_454c70|33|1 318,0,0,0,0,0,0,0,0,0,0,0,0,0,0,318,
scooby_state_454cd0|37|1 318,0,0,0,0,0,0,0,0,0,0,0,0,0,0,318,
scooby_state_454cd0|35|1 317,0,0,0,0,0,0,0,0,0,1,0,0,0,0,318,
scooby_state_454cd0|24|1 316,0,1,0,0,1,0,0,0,0,0,0,0,0,0,318,
scooby_state_454c70|19|1 318,0,0,0,0,0,0,0,0,0,0,0,0,0,0,318,
scooby_state_454c70|27|1 317,0,0,0,0,0,0,0,1,0,0,0,0,0,0,318,
scooby_state_454cd0|29|1 318,0,0,0,0,0,0,0,0,0,0,0,0,0,0,318,
scooby_state_454c8f|25|1 318,0,0,0,0,0,0,0,0,0,0,0,0,0,0,318,
scooby_state_454c8f|32|1 317,0,0,0,0,0,0,0,0,1,0,0,0,0,0,318,
scooby_state_454cd0|22|1 316,0,0,0,0,0,0,0,1,1,0,0,0,0,0,318,
scooby_state_454cd0|26|1 317,0,0,0,0,0,0,0,0,0,0,1,0,0,0,318,
scooby_state_454c70|23|1 317,0,0,0,0,1,0,0,0,0,0,0,0,0,0,318,
scooby_state_454c70|35|1 318,0,0,0,0,0,0,0,0,0,0,0,0,0,0,318,
scooby_state_454cd0|34|1 318,0,0,0,0,0,0,0,0,0,0,0,0,0,0,318,
scooby_state_454c8f|34|1 318,0,0,0,0,0,0,0,0,0,0,0,0,0,0,318,
scooby_state_454c0c|15|0 24,0,1,0,0,0,0,0,0,0,0,0,0,0,0,25,
scooby_state_454c14|12|0 1,23,0,0,0,0,0,0,0,0,0,0,0,0,0,24,
scooby_state_454d35|55|0 21,0,0,0,0,0,0,0,0,0,0,0,0,0,0,21,
scooby_state_4550ca|0|-63 10,0,0,0,0,0,0,0,0,0,0,0,0,0,0,10,
scooby_state_4550b6|0|-63 10,0,0,0,0,0,0,0,0,0,0,0,0,0,0,10,
scooby_state_4550b6|5|-58 9,0,0,0,0,0,0,0,0,0,0,0,0,0,0,9,
scooby_state_4550b6|26|-37 9,0,0,0,0,0,0,0,0,0,0,0,0,0,0,9,
scooby_state_4550b6|13|-50 8,0,0,0,0,0,0,0,0,0,0,0,0,0,0,8,
scooby_state_4550b6|17|-46 8,0,0,0,0,0,0,0,0,0,0,0,0,0,0,8,
scooby_state_4550ca|13|-50 8,0,0,0,0,0,0,0,0,0,0,0,0,0,0,8,
[...]
scooby_state_4550b6|0|-27 5,0,0,0,0,0,0,0,0,0,0,0,0,0,0,5,
scooby_state_4550bc|57|0 5,0,0,0,0,0,0,0,0,0,0,0,0,0,0,5,
scooby_state_4550ca|50|-13 5,0,0,0,0,0,0,0,0,0,0,0,0,0,0,5,
scooby_state_455101|45|0 5,0,0,0,0,0,0,0,0,0,0,0,0,0,0,5,
scooby_state_4550bc|37|0 5,0,0,0,0,0,0,0,0,0,0,0,0,0,0,5,
scooby_state_4550b6|45|-18 5,0,0,0,0,0,0,0,0,0,0,0,0,0,0,5,
scooby_state_455101|60|0 5,0,0,0,0,0,0,0,0,0,0,0,0,0,0,5,
scooby_state_454c8f|26|0 5,0,0,0,0,0,0,0,0,0,0,0,0,0,0,5,
scooby_state_454c8f|25|0 5,0,0,0,0,0,0,0,0,0,0,0,0,0,0,5,
scooby_state_455101|63|0 5,0,0,0,0,0,0,0,0,0,0,0,0,0,0,5,
scooby_state_4550bc|61|0 5,0,0,0,0,0,0,0,0,0,0,0,0,0,0,5,
scooby_state_455101|61|0 5,0,0,0,0,0,0,0,0,0,0,0,0,0,0,5,
scooby_state_4550b6|0|-60 5,0,0,0,0,0,0,0,0,0,0,0,0,0,0,5,
scooby_state_454cd0|44|0 5,0,0,0,0,0,0,0,0,0,0,0,0,0,0,5,
scooby_state_454c70|34|0 5,0,0,0,0,0,0,0,0,0,0,0,0,0,0,5,
scooby_state_454c70|47|0 5,0,0,0,0,0,0,0,0,0,0,0,0,0,0,5,
scooby_state_454cd0|19|0 5,0,0,0,0,0,0,0,0,0,0,0,0,0,0,5,
scooby_state_454c70|23|0 5,0,0,0,0,0,0,0,0,0,0,0,0,0,0,5,
scooby_state_4550b6|61|-2 5,0,0,0,0,0,0,0,0,0,0,0,0,0,0,5,
scooby_state_454c8f|22|0 5,0,0,0,0,0,0,0,0,0,0,0,0,0,0,5,
scooby_state_4550ca|61|-2 5,0,0,0,0,0,0,0,0,0,0,0,0,0,0,5,
scooby_state_4550a8|63|0 5,0,0,0,0,0,0,0,0,0,0,0,0,0,0,5,
scooby_state_454c8f|47|0 5,0,0,0,0,0,0,0,0,0,0,0,0,0,0,5,
scooby_state_4550b6|60|-3 5,0,0,0,0,0,0,0,0,0,0,0,0,0,0,5,
scooby_state_454cd0|40|0 5,0,0,0,0,0,0,0,0,0,0,0,0,0,0,5,
scooby_state_454cd0|35|0 5,0,0,0,0,0,0,0,0,0,0,0,0,0,0,5,
scooby_state_4550ca|58|-5 5,0,0,0,0,0,0,0,0,0,0,0,0,0,0,5,
scooby_state_454cd0|34|0 5,0,0,0,0,0,0,0,0,0,0,0,0,0,0,5,
scooby_state_454cd0|32|0 5,0,0,0,0,0,0,0,0,0,0,0,0,0,0,5,
scooby_state_454c70|32|0 5,0,0,0,0,0,0,0,0,0,0,0,0,0,0,5,
scooby_state_454c8f|35|0 5,0,0,0,0,0,0,0,0,0,0,0,0,0,0,5,
scooby_state_454c70|31|0 5,0,0,0,0,0,0,0,0,0,0,0,0,0,0,5,
scooby_state_454c8f|28|0 5,0,0,0,0,0,0,0,0,0,0,0,0,0,0,5,
scooby_state_454c70|28|0 5,0,0,0,0,0,0,0,0,0,0,0,0,0,0,5,
scooby_state_4550bc|51|0 5,0,0,0,0,0,0,0,0,0,0,0,0,0,0,5,
scooby_state_4550ca|37|-26 5,0,0,0,0,0,0,0,0,0,0,0,0,0,0,5,
scooby_state_4550a8|60|0 5,0,0,0,0,0,0,0,0,0,0,0,0,0,0,5,
scooby_state_4550bc|60|0 5,0,0,0,0,0,0,0,0,0,0,0,0,0,0,5,
scooby_state_454c70|38|0 5,0,0,0,0,0,0,0,0,0,0,0,0,0,0,5,
scooby_state_454c8f|34|0 5,0,0,0,0,0,0,0,0,0,0,0,0,0,0,5,
scooby_state_454cd0|2|0 4,0,0,0,0,0,0,0,0,0,0,0,0,0,0,4,
scooby_state_454c70|8|0 4,0,0,0,0,0,0,0,0,0,0,0,0,0,0,4,
scooby_state_454cd0|9|0 4,0,0,0,0,0,0,0,0,0,0,0,0,0,0,4,
scooby_state_454c70|16|0 4,0,0,0,0,0,0,0,0,0,0,0,0,0,0,4,
scooby_state_4550ca|49|-14 4,0,0,0,0,0,0,0,0,0,0,0,0,0,0,4,
scooby_state_4550ca|47|-16 4,0,0,0,0,0,0,0,0,0,0,0,0,0,0,4,
scooby_state_454c70|3|0 4,0,0,0,0,0,0,0,0,0,0,0,0,0,0,4,
scooby_state_454cd0|4|0 4,0,0,0,0,0,0,0,0,0,0,0,0,0,0,4,
scooby_state_454c8f|14|0 4,0,0,0,0,0,0,0,0,0,0,0,0,0,0,4,
scooby_state_454c70|10|0 4,0,0,0,0,0,0,0,0,0,0,0,0,0,0,4,
scooby_state_454c8f|13|0 4,0,0,0,0,0,0,0,0,0,0,0,0,0,0,4,
scooby_state_454c8f|10|0 4,0,0,0,0,0,0,0,0,0,0,0,0,0,0,4,
scooby_state_454c70|2|0 4,0,0,0,0,0,0,0,0,0,0,0,0,0,0,4,
scooby_state_454c70|1|0 4,0,0,0,0,0,0,0,0,0,0,0,0,0,0,4,
scooby_state_454c8f|9|0 4,0,0,0,0,0,0,0,0,0,0,0,0,0,0,4,
scooby_state_454cd0|14|0 4,0,0,0,0,0,0,0,0,0,0,0,0,0,0,4,
scooby_state_454c8f|5|0 4,0,0,0,0,0,0,0,0,0,0,0,0,0,0,4,
scooby_state_4550ca|54|-9 4,0,0,0,0,0,0,0,0,0,0,0,0,0,0,4,
scooby_state_454cd0|5|0 4,0,0,0,0,0,0,0,0,0,0,0,0,0,0,4,
scooby_state_454c8f|6|0 4,0,0,0,0,0,0,0,0,0,0,0,0,0,0,4,
scooby_state_454cd0|6|0 4,0,0,0,0,0,0,0,0,0,0,0,0,0,0,4,
scooby_state_454c70|7|0 4,0,0,0,0,0,0,0,0,0,0,0,0,0,0,4,
scooby_state_454c8f|7|0 4,0,0,0,0,0,0,0,0,0,0,0,0,0,0,4,
scooby_state_454cd0|7|0 4,0,0,0,0,0,0,0,0,0,0,0,0,0,0,4,
scooby_state_454c8f|8|0 4,0,0,0,0,0,0,0,0,0,0,0,0,0,0,4,
scooby_state_454cd0|12|0 4,0,0,0,0,0,0,0,0,0,0,0,0,0,0,4,
scooby_state_454c8f|1|0 4,0,0,0,0,0,0,0,0,0,0,0,0,0,0,4,
scooby_state_454cd0|8|0 4,0,0,0,0,0,0,0,0,0,0,0,0,0,0,4,
scooby_state_454c8f|4|0 4,0,0,0,0,0,0,0,0,0,0,0,0,0,0,4,
scooby_state_454cd0|10|0 4,0,0,0,0,0,0,0,0,0,0,0,0,0,0,4,
scooby_state_454cd0|15|0 4,0,0,0,0,0,0,0,0,0,0,0,0,0,0,4,
scooby_state_454c8f|17|0 4,0,0,0,0,0,0,0,0,0,0,0,0,0,0,4,
scooby_state_454c70|11|0 4,0,0,0,0,0,0,0,0,0,0,0,0,0,0,4,
scooby_state_454c8f|11|0 4,0,0,0,0,0,0,0,0,0,0,0,0,0,0,4,
scooby_state_454c8f|15|0 4,0,0,0,0,0,0,0,0,0,0,0,0,0,0,4,
scooby_state_454cd0|11|0 4,0,0,0,0,0,0,0,0,0,0,0,0,0,0,4,
scooby_state_454c70|15|0 4,0,0,0,0,0,0,0,0,0,0,0,0,0,0,4,
scooby_state_454c70|12|0 4,0,0,0,0,0,0,0,0,0,0,0,0,0,0,4,
scooby_state_454cd0|13|0 4,0,0,0,0,0,0,0,0,0,0,0,0,0,0,4,
scooby_state_454c70|17|0 4,0,0,0,0,0,0,0,0,0,0,0,0,0,0,4,
scooby_state_454c70|14|0 4,0,0,0,0,0,0,0,0,0,0,0,0,0,0,4,
scooby_state_454cd0|17|0 4,0,0,0,0,0,0,0,0,0,0,0,0,0,0,4,
scooby_state_4550b6|27|-36 4,0,0,0,0,0,0,0,0,0,0,0,0,0,0,4,
scooby_state_454c8f|2|0 4,0,0,0,0,0,0,0,0,0,0,0,0,0,0,4,
scooby_state_454cd0|16|0 4,0,0,0,0,0,0,0,0,0,0,0,0,0,0,4,
scooby_state_454c70|6|0 4,0,0,0,0,0,0,0,0,0,0,0,0,0,0,4,
scooby_state_454c70|9|0 4,0,0,0,0,0,0,0,0,0,0,0,0,0,0,4,
scooby_state_454c8f|16|0 4,0,0,0,0,0,0,0,0,0,0,0,0,0,0,4,
scooby_state_454c70|13|0 4,0,0,0,0,0,0,0,0,0,0,0,0,0,0,4,
scooby_state_454c70|5|0 4,0,0,0,0,0,0,0,0,0,0,0,0,0,0,4,
scooby_state_454c8f|12|0 4,0,0,0,0,0,0,0,0,0,0,0,0,0,0,4,
scooby_state_454cd0|1|0 4,0,0,0,0,0,0,0,0,0,0,0,0,0,0,4,
scooby_state_454c8f|3|0 4,0,0,0,0,0,0,0,0,0,0,0,0,0,0,4,
scooby_state_454cd0|3|0 4,0,0,0,0,0,0,0,0,0,0,0,0,0,0,4,
scooby_state_4550b6|34|-29 4,0,0,0,0,0,0,0,0,0,0,0,0,0,0,4,
scooby_state_454c70|4|0 4,0,0,0,0,0,0,0,0,0,0,0,0,0,0,4,
scooby_state_4550ca|32|-1 2,0,0,0,0,0,0,0,0,0,0,0,0,0,0,2,
scooby_state_4550ca|10|-1 2,0,0,0,0,0,0,0,0,0,0,0,0,0,0,2,
scooby_state_4550ca|29|-1 2,0,0,0,0,0,0,0,0,0,0,0,0,0,0,2,
scooby_state_4550b6|25|-1 2,0,0,0,0,0,0,0,0,0,0,0,0,0,0,2,
scooby_state_4550ca|34|2 2,0,0,0,0,0,0,0,0,0,0,0,0,0,0,2,
scooby_state_4550ca|13|2 2,0,0,0,0,0,0,0,0,0,0,0,0,0,0,2,
scooby_state_4550ca|5|-1 2,0,0,0,0,0,0,0,0,0,0,0,0,0,0,2,
scooby_state_4550ca|8|-1 2,0,0,0,0,0,0,0,0,0,0,0,0,0,0,2,
scooby_state_4550ca|10|2 2,0,0,0,0,0,0,0,0,0,0,0,0,0,0,2,
scooby_state_4550ca|11|-1 2,0,0,0,0,0,0,0,0,0,0,0,0,0,0,2,
scooby_state_4550ca|47|-1 2,0,0,0,0,0,0,0,0,0,0,0,0,0,0,2,
scooby_state_4550ca|52|2 2,0,0,0,0,0,0,0,0,0,0,0,0,0,0,2,
scooby_state_4550ca|27|2 2,0,0,0,0,0,0,0,0,0,0,0,0,0,0,2,
scooby_state_4550ca|7|-1 2,0,0,0,0,0,0,0,0,0,0,0,0,0,0,2,
scooby_state_4550ca|6|2 2,0,0,0,0,0,0,0,0,0,0,0,0,0,0,2,
scooby_state_4550ca|12|2 2,0,0,0,0,0,0,0,0,0,0,0,0,0,0,2,
scooby_state_4550b6|6|2 2,0,0,0,0,0,0,0,0,0,0,0,0,0,0,2,
scooby_state_4550ca|7|2 2,0,0,0,0,0,0,0,0,0,0,0,0,0,0,2,
scooby_state_4550b6|4|-1 2,0,0,0,0,0,0,0,0,0,0,0,0,0,0,2,
scooby_state_4550ca|31|2 2,0,0,0,0,0,0,0,0,0,0,0,0,0,0,2,
scooby_state_4550ca|25|-1 2,0,0,0,0,0,0,0,0,0,0,0,0,0,0,2,
scooby_state_4550ca|4|-1 2,0,0,0,0,0,0,0,0,0,0,0,0,0,0,2,
scooby_state_4550ca|28|2 2,0,0,0,0,0,0,0,0,0,0,0,0,0,0,2,
scooby_state_4550ca|26|-1 2,0,0,0,0,0,0,0,0,0,0,0,0,0,0,2,
scooby_state_4550ca|49|2 2,0,0,0,0,0,0,0,0,0,0,0,0,0,0,2,
scooby_state_4550ca|9|2 2,0,0,0,0,0,0,0,0,0,0,0,0,0,0,2,
scooby_state_4550b6|27|2 2,0,0,0,0,0,0,0,0,0,0,0,0,0,0,2,
scooby_state_4550ca|50|-1 2,0,0,0,0,0,0,0,0,0,0,0,0,0,0,2,
scooby_state_4550ca|28|-1 1,0,0,0,0,0,0,0,0,0,0,0,0,0,0,1,
scooby_state_454be0|47|-7 1,0,0,0,0,0,0,0,0,0,0,0,0,0,0,1,
scooby_state_4550ca|6|-1 1,0,0,0,0,0,0,0,0,0,0,0,0,0,0,1,
scooby_state_454ce5|23|0 1,0,0,0,0,0,0,0,0,0,0,0,0,0,0,1,
scooby_state_4550ca|11|2 1,0,0,0,0,0,0,0,0,0,0,0,0,0,0,1,
scooby_state_4550b6|56|-1 1,0,0,0,0,0,0,0,0,0,0,0,0,0,0,1,
scooby_state_4550b6|58|2 1,0,0,0,0,0,0,0,0,0,0,0,0,0,0,1,
scooby_state_4550b6|29|-1 1,0,0,0,0,0,0,0,0,0,0,0,0,0,0,1,
scooby_state_4550ca|56|2 1,0,0,0,0,0,0,0,0,0,0,0,0,0,0,1,
scooby_state_4550b6|27|-1 1,0,0,0,0,0,0,0,0,0,0,0,0,0,0,1,
scooby_state_4550b6|16|-1 1,0,0,0,0,0,0,0,0,0,0,0,0,0,0,1,
scooby_state_4550ca|51|-1 1,0,0,0,0,0,0,0,0,0,0,0,0,0,0,1,
scooby_state_4550b6|5|2 1,0,0,0,0,0,0,0,0,0,0,0,0,0,0,1,
scooby_state_4550ca|52|-1 1,0,0,0,0,0,0,0,0,0,0,0,0,0,0,1,
scooby_state_4550ca|14|2 1,0,0,0,0,0,0,0,0,0,0,0,0,0,0,1,
scooby_state_4550ca|27|-1 1,0,0,0,0,0,0,0,0,0,0,0,0,0,0,1,
scooby_state_4550b6|36|2 1,0,0,0,0,0,0,0,0,0,0,0,0,0,0,1,
scooby_state_4550ca|30|2 1,0,0,0,0,0,0,0,0,0,0,0,0,0,0,1,
scooby_state_454e40|57|1 1,0,0,0,0,0,0,0,0,0,0,0,0,0,0,1,
scooby_state_454d40|53|3 1,0,0,0,0,0,0,0,0,0,0,0,0,0,0,1,
scooby_state_454db4|50|0 1,0,0,0,0,0,0,0,0,0,0,0,0,0,0,1,
scooby_state_454d35|55|-3 1,0,0,0,0,0,0,0,0,0,0,0,0,0,0,1,
scooby_state_454e85|58|1 1,0,0,0,0,0,0,0,0,0,0,0,0,0,0,1,
scooby_state_454cdd|56|0 1,0,0,0,0,0,0,0,0,0,0,0,0,0,0,1,
scooby_state_4550ca|30|-1 1,0,0,0,0,0,0,0,0,0,0,0,0,0,0,1,
scooby_state_4550ca|51|2 1,0,0,0,0,0,0,0,0,0,0,0,0,0,0,1,
scooby_state_4550ca|3|-1 1,0,0,0,0,0,0,0,0,0,0,0,0,0,0,1,
scooby_state_454f40|61|1 1,0,0,0,0,0,0,0,0,0,0,0,0,0,0,1,
scooby_state_454e02|56|1 1,0,0,0,0,0,0,0,0,0,0,0,0,0,0,1,
scooby_state_4550ca|5|2 1,0,0,0,0,0,0,0,0,0,0,0,0,0,0,1,
scooby_state_454ec2|59|1 1,0,0,0,0,0,0,0,0,0,0,0,0,0,0,1,
scooby_state_454f00|60|1 1,0,0,0,0,0,0,0,0,0,0,0,0,0,0,1,
scooby_state_454fc1|63|1 1,0,0,0,0,0,0,0,0,0,0,0,0,0,0,1,
scooby_state_455000|0|0 1,0,0,0,0,0,0,0,0,0,0,0,0,0,0,1,
scooby_state_454de2|49|-1 1,0,0,0,0,0,0,0,0,0,0,0,0,0,0,1,
scooby_state_454e21|51|2 1,0,0,0,0,0,0,0,0,0,0,0,0,0,0,1,
scooby_state_454f0d|42|-9 1,0,0,0,0,0,0,0,0,0,0,0,0,0,0,1,
scooby_state_454f21|40|-2 1,0,0,0,0,0,0,0,0,0,0,0,0,0,0,1,
scooby_state_454f2d|38|-2 1,0,0,0,0,0,0,0,0,0,0,0,0,0,0,1,
scooby_state_454c70|49|-3 1,0,0,0,0,0,0,0,0,0,0,0,0,0,0,1,
scooby_state_454d83|54|1 1,0,0,0,0,0,0,0,0,0,0,0,0,0,0,1,
scooby_state_454cb8|32|0 1,0,0,0,0,0,0,0,0,0,0,0,0,0,0,1,
scooby_state_454d16|58|1 1,0,0,0,0,0,0,0,0,0,0,0,0,0,0,1,
scooby_state_454cff|57|1 1,0,0,0,0,0,0,0,0,0,0,0,0,0,0,1,
scooby_state_4550ca|12|-1 1,0,0,0,0,0,0,0,0,0,0,0,0,0,0,1,
scooby_state_454f82|62|1 1,0,0,0,0,0,0,0,0,0,0,0,0,0,0,1,
scooby_state_454c81|50|1 1,0,0,0,0,0,0,0,0,0,0,0,0,0,0,1,
scooby_state_454d07|52|1 1,0,0,0,0,0,0,0,0,0,0,0,0,0,0,1,
scooby_state_4550ca|29|2 1,0,0,0,0,0,0,0,0,0,0,0,0,0,0,1,
scooby_state_454f56|53|15 1,0,0,0,0,0,0,0,0,0,0,0,0,0,0,1,
scooby_state_4550b6|7|-1 1,0,0,0,0,0,0,0,0,0,0,0,0,0,0,1,
scooby_state_4550ca|24|-1 1,0,0,0,0,0,0,0,0,0,0,0,0,0,0,1,
scooby_state_4550ca|49|-1 1,0,0,0,0,0,0,0,0,0,0,0,0,0,0,1,
scooby_state_4550b6|34|-1 1,0,0,0,0,0,0,0,0,0,0,0,0,0,0,1,
scooby_state_4550b6|14|2 1,0,0,0,0,0,0,0,0,0,0,0,0,0,0,1,
scooby_state_4550b6|9|2 1,0,0,0,0,0,0,0,0,0,0,0,0,0,0,1,
scooby_state_4550ca|1|0 1,0,0,0,0,0,0,0,0,0,0,0,0,0,0,1,
scooby_state_454cc4|54|0 1,0,0,0,0,0,0,0,0,0,0,0,0,0,0,1,
scooby_state_454caa|46|0 1,0,0,0,0,0,0,0,0,0,0,0,0,0,0,1,
scooby_state_4550ca|33|2 1,0,0,0,0,0,0,0,0,0,0,0,0,0,0,1,
scooby_state_4550ca|33|-1 1,0,0,0,0,0,0,0,0,0,0,0,0,0,0,1,
scooby_state_454dc4|55|0 1,0,0,0,0,0,0,0,0,0,0,0,0,0,0,1,
scooby_state_4550ca|9|-1 1,0,0,0,0,0,0,0,0,0,0,0,0,0,0,1,
scooby_state_4550b6|3|-1 1,0,0,0,0,0,0,0,0,0,0,0,0,0,0,1,
scooby_state_4550ca|14|-1 1,0,0,0,0,0,0,0,0,0,0,0,0,0,0,1,
scooby_state_4550b6|14|-1 1,0,0,0,0,0,0,0,0,0,0,0,0,0,0,1,
scooby_state_4550b6|16|2 1,0,0,0,0,0,0,0,0,0,0,0,0,0,0,1,
scooby_state_4550ca|54|2 1,0,0,0,0,0,0,0,0,0,0,0,0,0,0,1,
scooby_state_455185|6|1 1,0,0,0,0,0,0,0,0,0,0,0,0,0,0,1,
scooby_state_4550b6|10|2 1,0,0,0,0,0,0,0,0,0,0,0,0,0,0,1,
scooby_state_4550b6|29|2 1,0,0,0,0,0,0,0,0,0,0,0,0,0,0,1,
scooby_state_4550ca|26|2 1,0,0,0,0,0,0,0,0,0,0,0,0,0,0,1,
scooby_state_4550e2|11|0 1,0,0,0,0,0,0,0,0,0,0,0,0,0,0,1,
scooby_state_4550ca|31|-1 1,0,0,0,0,0,0,0,0,0,0,0,0,0,0,1,
scooby_state_4550ca|54|-1 1,0,0,0,0,0,0,0,0,0,0,0,0,0,0,1,
scooby_state_4550ca|35|-1 1,0,0,0,0,0,0,0,0,0,0,0,0,0,0,1,
scooby_state_4550ca|37|2 1,0,0,0,0,0,0,0,0,0,0,0,0,0,0,1,
scooby_state_4550b6|31|2 1,0,0,0,0,0,0,0,0,0,0,0,0,0,0,1,
scooby_state_4550b6|6|-1 1,0,0,0,0,0,0,0,0,0,0,0,0,0,0,1,
scooby_state_4550b6|18|2 1,0,0,0,0,0,0,0,0,0,0,0,0,0,0,1,
scooby_state_455041|1|1 1,0,0,0,0,0,0,0,0,0,0,0,0,0,0,1,
scooby_state_455085|2|1 1,0,0,0,0,0,0,0,0,0,0,0,0,0,0,1,
scooby_state_4550c2|3|1 1,0,0,0,0,0,0,0,0,0,0,0,0,0,0,1,
scooby_state_4550f4|19|0 1,0,0,0,0,0,0,0,0,0,0,0,0,0,0,1,
scooby_state_4550dc|11|0 1,0,0,0,0,0,0,0,0,0,0,0,0,0,0,1,
scooby_state_455113|57|0 1,0,0,0,0,0,0,0,0,0,0,0,0,0,0,1,
scooby_state_4550fa|18|0 1,0,0,0,0,0,0,0,0,0,0,0,0,0,0,1,
scooby_state_4550b6|1|0 1,0,0,0,0,0,0,0,0,0,0,0,0,0,0,1,
scooby_state_4550b6|8|2 1,0,0,0,0,0,0,0,0,0,0,0,0,0,0,1,
scooby_state_4550b6|12|-1 1,0,0,0,0,0,0,0,0,0,0,0,0,0,0,1,
scooby_state_4550ca|16|2 1,0,0,0,0,0,0,0,0,0,0,0,0,0,0,1,
scooby_state_4550ca|8|2 1,0,0,0,0,0,0,0,0,0,0,0,0,0,0,1,
scooby_state_4550ca|32|2 1,0,0,0,0,0,0,0,0,0,0,0,0,0,0,1,
scooby_state_4550ca|35|2 1,0,0,0,0,0,0,0,0,0,0,0,0,0,0,1,
scooby_state_4550ca|53|2 1,0,0,0,0,0,0,0,0,0,0,0,0,0,0,1,
scooby_state_455145|5|1 1,0,0,0,0,0,0,0,0,0,0,0,0,0,0,1,
scooby_state_455165|51|-2 0,1,0,0,0,0,0,0,0,0,0,0,0,0,0,1,
scooby_state_4550b6|8|-1 1,0,0,0,0,0,0,0,0,0,0,0,0,0,0,1,
scooby_state_454c00|48|1 1,0,0,0,0,0,0,0,0,0,0,0,0,0,0,1,

scooby_action_0_deg_dist 0,115,0,0,0,0,0,0,0,0,0,0,0,0,0,0,
scooby_action_4_deg_dist 0,45,0,0,0,0,0,0,0,0,0,0,0,0,0,0,
scooby_action_32_deg_dist 0,52,0,0,0,0,0,0,0,0,0,0,0,0,0,0,
scooby_action_3_deg_dist 0,81,0,0,0,0,0,0,0,0,0,0,0,0,0,0,
scooby_action_5_deg_dist 0,63,0,0,0,0,0,0,0,0,0,0,0,0,0,0,
scooby_action_1_deg_dist 0,18978,12341,0,30485,0,305944,0,0,0,0,0,0,0,0,0,
scooby_action_30_deg_dist 0,64,0,0,0,0,0,0,0,0,0,0,0,0,0,0,
scooby_action_-3_deg_dist 0,48,0,0,0,0,0,0,0,0,0,0,0,0,0,0,
scooby_action_10_deg_dist 0,68,0,0,0,0,0,0,0,0,0,0,0,0,0,0,
scooby_action_-1_deg_dist 0,68,0,0,0,0,0,0,0,0,0,0,0,0,0,0,
scooby_action_23_deg_dist 0,55,0,0,0,0,0,0,0,0,0,0,0,0,0,0,
scooby_action_-6_deg_dist 0,62,0,0,0,0,0,0,0,0,0,0,0,0,0,0,
scooby_action_11_deg_dist 0,437,0,0,0,0,0,0,0,0,0,0,0,0,0,0,
scooby_action_22_deg_dist 0,68,0,0,0,0,0,0,0,0,0,0,0,0,0,0,
scooby_action_12_deg_dist 0,60,0,0,0,0,0,0,0,0,0,0,0,0,0,0,

scooby_track_called 369034
scooby_track_same_address 410
scooby_track_evict 368368

scooby_reward_demand_called 369034
scooby_reward_demand_pt_not_found 10438
scooby_reward_demand_pt_found 358596
scooby_reward_demand_pt_found_total 358596
scooby_reward_demand_has_reward 0
scooby_reward_train_called 4166
scooby_reward_assign_reward_called 368615
scooby_reward_no_pref 115
scooby_reward_incorrect 4051
scooby_reward_correct_untimely 336257
scooby_reward_correct_timely 22339
scooby_reward_out_of_bounds 5853
scooby_reward_tracker_hit 0

scooby_reward_none_low_bw 115
scooby_reward_none_high_bw 0
scooby_reward_incorrect_low_bw 4051
scooby_reward_incorrect_high_bw 0
scooby_reward_correct_untimely_low_bw 336257
scooby_reward_correct_untimely_high_bw 0
scooby_reward_correct_timely_low_bw 22339
scooby_reward_correct_timely_high_bw 0
scooby_reward_out_of_bounds_low_bw 5853
scooby_reward_out_of_bounds_high_bw 0
scooby_reward_tracker_hit_low_bw 0
scooby_reward_tracker_hit_high_bw 0

scooby_reward_1 0,3405,336141,22164,5732,0,
scooby_reward_3 0,32,36,12,1,0,
scooby_reward_4 0,10,26,8,1,0,
scooby_reward_5 0,23,20,15,5,0,
scooby_reward_10 0,15,10,32,11,0,
scooby_reward_11 0,396,7,21,13,0,
scooby_reward_12 0,11,7,33,9,0,
scooby_reward_22 0,21,6,26,15,0,
scooby_reward_23 0,20,4,15,16,0,
scooby_reward_30 0,31,0,8,25,0,
scooby_reward_32 0,29,0,5,18,0,
scooby_reward_-1 0,20,0,0,1,0,
scooby_reward_-3 0,9,0,0,2,0,
scooby_reward_-6 0,29,0,0,4,0,
scooby_reward_0 115,0,0,0,0,0,

scooby_train_called 368367
scooby_train_compute_reward 4166

scooby_register_fill_called 264390
scooby_register_fill_set 22764
scooby_register_fill_set_total 22764

scooby_register_prefetch_hit_called 1470580
scooby_register_prefetch_hit_set 330864
scooby_register_prefetch_hit_set_total 330864

scooby_pref_issue_scooby 1886132

learning_engine_featurewise.action.called 369034
learning_engine_featurewise.action.explore 688
learning_engine_featurewise.action.exploit 368346
learning_engine_featurewise.action.fallback 0
learning_engine_featurewise.action.dyn_fallback_saved_bw 0
learning_engine_featurewise.action.dyn_fallback_saved_bw_acc 0
learning_engine_featurewise.action.index_1_explored 37
learning_engine_featurewise.action.index_1_exploited 367711
learning_engine_featurewise.action.index_3_explored 49
learning_engine_featurewise.action.index_3_exploited 32
learning_engine_featurewise.action.index_4_explored 37
learning_engine_featurewise.action.index_4_exploited 8
learning_engine_featurewise.action.index_5_explored 45
learning_engine_featurewise.action.index_5_exploited 18
learning_engine_featurewise.action.index_10_explored 57
learning_engine_featurewise.action.index_10_exploited 11
learning_engine_featurewise.action.index_11_explored 45
learning_engine_featurewise.action.index_11_exploited 392
learning_engine_featurewise.action.index_12_explored 53
learning_engine_featurewise.action.index_12_exploited 7
learning_engine_featurewise.action.index_22_explored 52
learning_engine_featurewise.action.index_22_exploited 16
learning_engine_featurewise.action.index_23_explored 45
learning_engine_featurewise.action.index_23_exploited 10
learning_engine_featurewise.action.index_30_explored 56
learning_engine_featurewise.action.index_30_exploited 8
learning_engine_featurewise.action.index_32_explored 36
learning_engine_featurewise.action.index_32_exploited 16
learning_engine_featurewise.action.index_-1_explored 52
learning_engine_featurewise.action.index_-1_exploited 16
learning_engine_featurewise.action.index_-3_explored 40
learning_engine_featurewise.action.index_-3_exploited 8
learning_engine_featurewise.action.index_-6_explored 36
learning_engine_featurewise.action.index_-6_exploited 26
learning_engine_featurewise.action.index_0_explored 48
learning_engine_featurewise.action.index_0_exploited 67
learning_engine_featurewise.learn.called 368367
learning_engine_featurewise.learn.su_skip_PC 0
learning_engine_featurewise.learn.su_skip_PC_Delta 0

learning_engine_featurewise.q_value_histogram.bucket_0 0
learning_engine_featurewise.q_value_histogram.bucket_1 0
learning_engine_featurewise.q_value_histogram.bucket_2 0
learning_engine_featurewise.q_value_histogram.bucket_3 334
learning_engine_featurewise.q_value_histogram.bucket_4 949
learning_engine_featurewise.q_value_histogram.bucket_5 1159
learning_engine_featurewise.q_value_histogram.bucket_6 365904
learning_engine_featurewise.q_value_histogram.bucket_7 0

learning_engine_featurewise.consensus.total 368346
learning_engine_featurewise.consensus.feature_align_PC 367822
learning_engine_featurewise.consensus.feature_align_PC_ratio 1.00
learning_engine_featurewise.consensus.feature_align_PC_Delta 368203
learning_engine_featurewise.consensus.feature_align_PC_Delta_ratio 1.00
learning_engine_featurewise.consensus.feature_align_all 367679
learning_engine_featurewise.consensus.feature_align_all_ratio 1.00

learning_engine_featurewise.feature_PC_min_weight 1000000.00000000
learning_engine_featurewise.feature_PC_max_weight 0.00000000
learning_engine_featurewise.feature_PC_Delta_min_weight 1000000.00000000
learning_engine_featurewise.feature_PC_Delta_max_weight 0.00000000
unique_pcs 54
unique_pages 5186
unique_trigger_pcs 25
total_bitmaps_seen 0
unique_bitmaps_seen 0

scooby_bw_epochs 44740
scooby_bw_level_0 3372
scooby_bw_level_1 6484
scooby_bw_level_2 14423
scooby_bw_level_3 20461

scooby_ipc_epochs 0
scooby_ipc_level_0 0
scooby_ipc_level_1 0
scooby_ipc_level_2 0
scooby_ipc_level_3 0

scooby_cache_acc_epochs 10506
scooby_cache_acc_level_0 1
scooby_cache_acc_level_1 0
scooby_cache_acc_level_2 1
scooby_cache_acc_level_3 0
scooby_cache_acc_level_4 6
scooby_cache_acc_level_5 20
scooby_cache_acc_level_6 35
scooby_cache_acc_level_7 311
scooby_cache_acc_level_8 1915
scooby_cache_acc_level_9 8217

Channel_0_RQ_row_buffer_hit 180962
Channel_0_RQ_row_buffer_miss 117827
Channel_0_WQ_row_buffer_hit 3603
Channel_0_WQ_row_buffer_miss 20975
Channel_0_WQ_full 0
Channel_0_dbus_congested 130042

avg_congested_cycle 8

DRAM_bw_pochs 44740
DRAM_bw_level_0 3372
DRAM_bw_level_1 6484
DRAM_bw_level_2 14423
DRAM_bw_level_3 20461
