Original cmd-> /cluster/home/vlnitu/CA-Lab4-24-vlnitu/Pythia/bin/perceptron-no-multi-no-ship-1core --warmup_instructions=1000000 --simulation_instructions=10000000 --config=/cluster/home/vlnitu/CA-Lab4-24-vlnitu/Pythia/config/nopref.ini --mail-type=BEGIN,END  -traces /cluster/home/vlnitu/CA-Lab4-24-vlnitu/Pythia/traces/654.roms_s-1390B.champsimtrace.xz
*************************************************
   ChampSim Multicore Out-of-Order Simulator
   Last compiled: Nov 19 2024 20:10:11
*************************************************
parsing config file: /cluster/home/vlnitu/CA-Lab4-24-vlnitu/Pythia/config/nopref.ini
unable to parse section: , name: mail-type, value: BEGIN,END

trace_0 /cluster/home/vlnitu/CA-Lab4-24-vlnitu/Pythia/traces/654.roms_s-1390B.champsimtrace.xz
adding L2C_PREFETCHER: NONE
Initialize SHIP state
warmup_instructions 1000000
simulation_instructions 10000000
champsim_seed 271
measure_ipc 0
measure_ipc_epoch 1000
measure_dram_bw 1
measure_dram_bw_epoch 256
measure_cache_acc 1
measure_cache_acc_epoch 1024
l1d_perfect 0
l2c_perfect 0
llc_perfect 0
l1d_semi_perfect 0
l2c_semi_perfect 0
llc_semi_perfect 0
semi_perfect_cache_page_buffer_size 64

num_cpus 1
cpu_freq 4000
dram_io_freq 2400
page_size 4096
block_size 64
max_read_per_cycle 8
max_fill_per_cycle 1
dram_channels 1
log2_dram_channels 0
dram_ranks 1
dram_banks 8
dram_rows 65536
dram_columns 128
dram_row_size 8
dram_size 4096
dram_pages 1048576

fetch_width 6
decode_width 6
exec_width 4
lq_width 2
sq_width 2
retire_width 4
scheduler_size 128
branch_mispredict_penalty 20
rob_size 256
lq_size 72
sq_size 56
num_instr_destinations_sparc 4
num_instr_destinations 2
num_instr_sources 4

itlb_set 16
itlb_way 8
itlb_rq_size 16
itlb_wq_size 16
itlb_pq_size 0
itlb_mshr_size 8
itlb_latency 1

dtlb_set 16
dtlb_way 4
dtlb_rq_size 16
dtlb_wq_size 16
dtlb_pq_size 0
dtlb_mshr_size 8
dtlb_latency 1

stlb_set 128
stlb_way 12
stlb_rq_size 32
stlb_wq_size 32
stlb_pq_size 0
stlb_mshr_size 16
stlb_latency 8

l1i_size 32
l1i_set 64
l1i_way 8
l1i_rq_size 64
l1i_wq_size 64
l1i_pq_size 8
l1i_mshr_size 8
l1i_latency 1

l1d_size 32
l1d_set 64
l1d_way 8
l1d_rq_size 64
l1d_wq_size 64
l1d_pq_size 8
l1d_mshr_size 16
l1d_latency 4

l2c_size 256
l2c_set 512
l2c_way 8
l2c_rq_size 32
l2c_wq_size 32
l2c_pq_size 32
l2c_mshr_size 32
l2c_latency 10

llc_size 2048
llc_set 2048
llc_way 16
llc_rq_size 32
llc_wq_size 32
llc_pq_size 32
llc_mshr_size 64
llc_latency 20

dram_channel_width 8
dram_wq_size 64
dram_rq_size 64
tRP 15
tRCD 15
tCAS 12.5
dram_dbus_turn_around_time 30
dram_write_high_wm 56
dram_write_low_wm 48
min_dram_writes_per_switch 16
dram_mtps 2400
dram_dbus_return_time 13


Heartbeat CPU  0 instructions:    1000003 cycles:     645433 heartbeat IPC: 1.54935 cumulative IPC: 1.54935 (Simulation time: 0 hr 0 min 2 sec) 

Warmup complete CPU  0 instructions:    1000003 cycles:     645433 (Simulation time: 0 hr 0 min 2 sec) 

Heartbeat CPU  0 instructions:    2000000 cycles:    2887397 heartbeat IPC: 0.44604 cumulative IPC: 0.44604 (Simulation time: 0 hr 0 min 4 sec) 
Heartbeat CPU  0 instructions:    3000002 cycles:    5156894 heartbeat IPC: 0.44063 cumulative IPC: 0.44332 (Simulation time: 0 hr 0 min 6 sec) 
Heartbeat CPU  0 instructions:    4000000 cycles:    7463889 heartbeat IPC: 0.43346 cumulative IPC: 0.43998 (Simulation time: 0 hr 0 min 9 sec) 
Heartbeat CPU  0 instructions:    5000001 cycles:    9718809 heartbeat IPC: 0.44348 cumulative IPC: 0.44085 (Simulation time: 0 hr 0 min 11 sec) 
Heartbeat CPU  0 instructions:    6000001 cycles:   12319109 heartbeat IPC: 0.38457 cumulative IPC: 0.42831 (Simulation time: 0 hr 0 min 13 sec) 
Heartbeat CPU  0 instructions:    7000002 cycles:   15064673 heartbeat IPC: 0.36422 cumulative IPC: 0.41611 (Simulation time: 0 hr 0 min 16 sec) 
Heartbeat CPU  0 instructions:    8000000 cycles:   17534339 heartbeat IPC: 0.40491 cumulative IPC: 0.41447 (Simulation time: 0 hr 0 min 18 sec) 
Heartbeat CPU  0 instructions:    9000000 cycles:   20207981 heartbeat IPC: 0.37402 cumulative IPC: 0.40894 (Simulation time: 0 hr 0 min 20 sec) 
Heartbeat CPU  0 instructions:   10000003 cycles:   22932523 heartbeat IPC: 0.36704 cumulative IPC: 0.40382 (Simulation time: 0 hr 0 min 23 sec) 
Heartbeat CPU  0 instructions:   11000002 cycles:   25688497 heartbeat IPC: 0.36285 cumulative IPC: 0.39931 (Simulation time: 0 hr 0 min 25 sec) 
Finished CPU 0 instructions: 10000000 cycles: 25043065 cumulative IPC: 0.39931 (Simulation time: 0 hr 0 min 25 sec) 

ChampSim completed all CPUs

[ROI Statistics]
Core_0_instructions 10000000
Core_0_cycles 25043065
Core_0_IPC 0.39931

Core_0_branch_prediction_accuracy 99.80465
Core_0_branch_MPKI 0.06380
Core_0_average_ROB_occupancy_at_mispredict 253.26176

Core_0_L1D_total_access 3385516
Core_0_L1D_total_hit 2998203
Core_0_L1D_total_miss 387313
Core_0_L1D_loads 3180390
Core_0_L1D_load_hit 2834377
Core_0_L1D_load_miss 346013
Core_0_L1D_RFOs 205126
Core_0_L1D_RFO_hit 163826
Core_0_L1D_RFO_miss 41300
Core_0_L1D_prefetches 0
Core_0_L1D_prefetch_hit 0
Core_0_L1D_prefetch_miss 0
Core_0_L1D_writebacks 0
Core_0_L1D_writeback_hit 0
Core_0_L1D_writeback_miss 0
Core_0_L1D_prefetch_requested 0
Core_0_L1D_prefetch_dropped 0
Core_0_L1D_prefetch_issued 0
Core_0_L1D_prefetch_filled 0
Core_0_L1D_prefetch_useful 0
Core_0_L1D_prefetch_useless 0
Core_0_L1D_prefetch_late 0
Core_0_L1D_average_miss_latency 153.58857

Core_0_L1D_rq_access 5674590
Core_0_L1D_rq_forward 0
Core_0_L1D_rq_merged 2122821
Core_0_L1D_rq_to_cache 3551769
Core_0_L1D_rq_full 0

Core_0_L1D_wq_access 328513
Core_0_L1D_wq_forward 0
Core_0_L1D_wq_merged 0
Core_0_L1D_wq_to_cache 328513
Core_0_L1D_wq_full 0

Core_0_L1D_pq_access 0
Core_0_L1D_pq_forward 0
Core_0_L1D_pq_merged 0
Core_0_L1D_pq_to_cache 0
Core_0_L1D_pq_full 0

Core_0_L1D_acc_epochs 24408
Core_0_L1D_acc_level_0 24408
Core_0_L1D_acc_level_1 0
Core_0_L1D_acc_level_2 0
Core_0_L1D_acc_level_3 0
Core_0_L1D_acc_level_4 0
Core_0_L1D_acc_level_5 0
Core_0_L1D_acc_level_6 0
Core_0_L1D_acc_level_7 0
Core_0_L1D_acc_level_8 0
Core_0_L1D_acc_level_9 0

Core_0_L1I_total_access 2659168
Core_0_L1I_total_hit 2659152
Core_0_L1I_total_miss 16
Core_0_L1I_loads 2659168
Core_0_L1I_load_hit 2659152
Core_0_L1I_load_miss 16
Core_0_L1I_RFOs 0
Core_0_L1I_RFO_hit 0
Core_0_L1I_RFO_miss 0
Core_0_L1I_prefetches 0
Core_0_L1I_prefetch_hit 0
Core_0_L1I_prefetch_miss 0
Core_0_L1I_writebacks 0
Core_0_L1I_writeback_hit 0
Core_0_L1I_writeback_miss 0
Core_0_L1I_prefetch_requested 0
Core_0_L1I_prefetch_dropped 0
Core_0_L1I_prefetch_issued 0
Core_0_L1I_prefetch_filled 0
Core_0_L1I_prefetch_useful 0
Core_0_L1I_prefetch_useless 0
Core_0_L1I_prefetch_late 0
Core_0_L1I_average_miss_latency 234.93750

Core_0_L1I_rq_access 9999999
Core_0_L1I_rq_forward 0
Core_0_L1I_rq_merged 7340777
Core_0_L1I_rq_to_cache 2659222
Core_0_L1I_rq_full 0

Core_0_L1I_wq_access 0
Core_0_L1I_wq_forward 0
Core_0_L1I_wq_merged 0
Core_0_L1I_wq_to_cache 0
Core_0_L1I_wq_full 0

Core_0_L1I_pq_access 0
Core_0_L1I_pq_forward 0
Core_0_L1I_pq_merged 0
Core_0_L1I_pq_to_cache 0
Core_0_L1I_pq_full 0

Core_0_L1I_acc_epochs 24408
Core_0_L1I_acc_level_0 24408
Core_0_L1I_acc_level_1 0
Core_0_L1I_acc_level_2 0
Core_0_L1I_acc_level_3 0
Core_0_L1I_acc_level_4 0
Core_0_L1I_acc_level_5 0
Core_0_L1I_acc_level_6 0
Core_0_L1I_acc_level_7 0
Core_0_L1I_acc_level_8 0
Core_0_L1I_acc_level_9 0

Core_0_L2C_total_access 429036
Core_0_L2C_total_hit 140099
Core_0_L2C_total_miss 288937
Core_0_L2C_loads 346028
Core_0_L2C_load_hit 98400
Core_0_L2C_load_miss 247628
Core_0_L2C_RFOs 41300
Core_0_L2C_RFO_hit 0
Core_0_L2C_RFO_miss 41300
Core_0_L2C_prefetches 0
Core_0_L2C_prefetch_hit 0
Core_0_L2C_prefetch_miss 0
Core_0_L2C_writebacks 41708
Core_0_L2C_writeback_hit 41699
Core_0_L2C_writeback_miss 9
Core_0_L2C_prefetch_requested 0
Core_0_L2C_prefetch_dropped 0
Core_0_L2C_prefetch_issued 0
Core_0_L2C_prefetch_filled 0
Core_0_L2C_prefetch_useful 0
Core_0_L2C_prefetch_useless 0
Core_0_L2C_prefetch_late 0
Core_0_L2C_average_miss_latency 186.25905

Core_0_L2C_rq_access 387330
Core_0_L2C_rq_forward 0
Core_0_L2C_rq_merged 0
Core_0_L2C_rq_to_cache 387329
Core_0_L2C_rq_full 0

Core_0_L2C_wq_access 41708
Core_0_L2C_wq_forward 1
Core_0_L2C_wq_merged 0
Core_0_L2C_wq_to_cache 41708
Core_0_L2C_wq_full 0

Core_0_L2C_pq_access 0
Core_0_L2C_pq_forward 0
Core_0_L2C_pq_merged 0
Core_0_L2C_pq_to_cache 0
Core_0_L2C_pq_full 0

Core_0_L2C_acc_epochs 24408
Core_0_L2C_acc_level_0 24408
Core_0_L2C_acc_level_1 0
Core_0_L2C_acc_level_2 0
Core_0_L2C_acc_level_3 0
Core_0_L2C_acc_level_4 0
Core_0_L2C_acc_level_5 0
Core_0_L2C_acc_level_6 0
Core_0_L2C_acc_level_7 0
Core_0_L2C_acc_level_8 0
Core_0_L2C_acc_level_9 0

Core_0_LLC_total_access 330286
Core_0_LLC_total_hit 8431
Core_0_LLC_total_miss 321855
Core_0_LLC_loads 247628
Core_0_LLC_load_hit 19
Core_0_LLC_load_miss 247609
Core_0_LLC_RFOs 41300
Core_0_LLC_RFO_hit 0
Core_0_LLC_RFO_miss 41300
Core_0_LLC_prefetches 0
Core_0_LLC_prefetch_hit 0
Core_0_LLC_prefetch_miss 0
Core_0_LLC_writebacks 41358
Core_0_LLC_writeback_hit 8412
Core_0_LLC_writeback_miss 32946
Core_0_LLC_prefetch_requested 0
Core_0_LLC_prefetch_dropped 0
Core_0_LLC_prefetch_issued 0
Core_0_LLC_prefetch_filled 0
Core_0_LLC_prefetch_useful 0
Core_0_LLC_prefetch_useless 0
Core_0_LLC_prefetch_late 0
Core_0_LLC_average_miss_latency 139.73810

Core_0_LLC_rq_access 288929
Core_0_LLC_rq_forward 0
Core_0_LLC_rq_merged 0
Core_0_LLC_rq_to_cache 288929
Core_0_LLC_rq_full 0

Core_0_LLC_wq_access 41358
Core_0_LLC_wq_forward 0
Core_0_LLC_wq_merged 0
Core_0_LLC_wq_to_cache 41358
Core_0_LLC_wq_full 0

Core_0_LLC_pq_access 0
Core_0_LLC_pq_forward 0
Core_0_LLC_pq_merged 0
Core_0_LLC_pq_to_cache 0
Core_0_LLC_pq_full 0

Core_0_LLC_acc_epochs 25087
Core_0_LLC_acc_level_0 25087
Core_0_LLC_acc_level_1 0
Core_0_LLC_acc_level_2 0
Core_0_LLC_acc_level_3 0
Core_0_LLC_acc_level_4 0
Core_0_LLC_acc_level_5 0
Core_0_LLC_acc_level_6 0
Core_0_LLC_acc_level_7 0
Core_0_LLC_acc_level_8 0
Core_0_LLC_acc_level_9 0

Core_0_major_page_fault 0
Core_0_minor_page_fault 6577

Channel_0_RQ_row_buffer_hit 177058
Channel_0_RQ_row_buffer_miss 111851
Channel_0_WQ_row_buffer_hit 19480
Channel_0_WQ_row_buffer_miss 5233
Channel_0_WQ_full 0
Channel_0_dbus_congested 38129

avg_congested_cycle 9

DRAM_bw_pochs 100346
DRAM_bw_level_0 32655
DRAM_bw_level_1 67125
DRAM_bw_level_2 564
DRAM_bw_level_3 2
